686
Atoms. Timestep: 0
Pd 400 400 400
Pd 402.082 398.488 401.588
Pd 402.081 401.513 401.588
Pd 399.205 397.552 401.588
Pd 399.205 402.447 401.588
Pd 397.425 400 401.588
Pd 399.205 397.552 398.413
Pd 397.425 400 398.413
Pd 402.082 398.488 398.413
Pd 399.205 402.447 398.413
Pd 402.081 401.513 398.413
Pd 400 400 403.175
Pd 400 400 396.823
Pd 401.288 396.04 400
Pd 401.286 403.96 400
Pd 396.63 402.447 400
Pd 396.633 397.552 400
Pd 404.164 400.001 400
Pd 404.164 396.976 400
Pd 398.407 404.894 400
Pd 404.163 403.026 400
Pd 394.853 400 400
Pd 398.41 395.104 400
Pd 396.63 402.447 403.175
Pd 401.288 396.04 403.175
Pd 404.164 400.001 403.175
Pd 396.633 397.552 403.175
Pd 401.286 403.96 403.175
Pd 401.286 403.96 396.823
Pd 396.633 397.552 396.823
Pd 404.164 400.001 396.823
Pd 401.288 396.04 396.823
Pd 396.63 402.447 396.823
Pd 402.082 398.488 404.763
Pd 399.205 397.552 404.763
Pd 399.205 402.447 404.763
Pd 397.425 400 404.763
Pd 402.081 401.513 404.763
Pd 402.081 401.513 395.236
Pd 397.425 400 395.236
Pd 399.205 402.447 395.236
Pd 399.205 397.552 395.236
Pd 402.082 398.488 395.236
Pd 398.41 395.104 403.175
Pd 404.164 396.976 403.175
Pd 404.163 403.026 403.175
Pd 398.407 404.894 403.175
Pd 394.853 400 403.175
Pd 404.164 396.976 396.823
Pd 404.163 403.026 396.823
Pd 398.41 395.104 396.823
Pd 398.407 404.894 396.823
Pd 394.853 400 396.823
Pd 400 400 406.35
Pd 400 400 393.65
Pd 395.836 404.894 401.588
Pd 403.367 405.473 401.588
Pd 395.838 395.104 401.588
Pd 403.37 394.528 401.588
Pd 400.493 393.592 401.588
Pd 394.059 397.552 401.588
Pd 394.059 402.446 401.588
Pd 406.246 398.488 401.588
Pd 406.245 401.514 401.588
Pd 400.49 406.407 401.588
Pd 394.059 402.446 398.413
Pd 403.367 405.473 398.413
Pd 395.838 395.104 398.413
Pd 406.246 398.488 398.413
Pd 406.245 401.514 398.413
Pd 400.49 406.407 398.413
Pd 395.836 404.894 398.413
Pd 403.37 394.528 398.413
Pd 400.493 393.592 398.413
Pd 394.059 397.552 398.413
Pd 406.247 395.464 401.588
Pd 397.612 407.341 401.588
Pd 392.279 400 401.588
Pd 406.244 404.539 401.588
Pd 397.615 392.656 401.588
Pd 406.247 395.464 398.413
Pd 392.279 400 398.413
Pd 397.612 407.341 398.413
Pd 406.244 404.539 398.413
Pd 397.615 392.656 398.413
Pd 393.264 395.104 400
Pd 402.571 407.921 400
Pd 393.261 404.893 400
Pd 408.327 400.002 400
Pd 402.575 392.08 400
Pd 399.695 408.855 400
Pd 399.698 391.144 400
Pd 405.448 406.986 400
Pd 391.487 397.549 400
Pd 405.452 393.016 400
Pd 395.038 407.341 400
Pd 408.328 396.976 400
Pd 391.484 402.445 400
Pd 408.327 403.027 400
Pd 395.044 392.656 400
Pd 408.326 406.052 400
Pd 396.82 390.211 400
Pd 408.329 393.952 400
Pd 389.707 400 400
Pd 396.818 409.789 400
Pd 396.632 397.552 406.35
Pd 396.632 397.552 393.65
Pd 404.164 400.001 406.35
Pd 404.164 400.001 393.65
Pd 401.286 403.96 406.35
Pd 401.286 403.96 393.65
Pd 396.631 402.446 406.35
Pd 396.631 402.446 393.65
Pd 401.288 396.04 406.35
Pd 401.288 396.04 393.65
Pd 395.835 404.894 404.763
Pd 395.835 404.894 395.237
Pd 400.49 406.407 404.763
Pd 400.49 406.407 395.237
Pd 406.246 398.489 404.763
Pd 406.246 398.489 395.237
Pd 406.245 401.514 404.763
Pd 406.245 401.514 395.237
Pd 403.367 405.473 404.763
Pd 403.367 405.473 395.237
Pd 395.838 395.104 404.763
Pd 395.838 395.104 395.237
Pd 403.37 394.528 404.763
Pd 403.37 394.528 395.237
Pd 394.059 397.551 404.763
Pd 394.059 397.551 395.237
Pd 400.493 393.593 404.763
Pd 400.493 393.593 395.237
Pd 394.057 402.446 404.763
Pd 394.057 402.446 395.237
Pd 394.853 399.999 406.35
Pd 394.853 399.999 393.65
Pd 398.408 404.894 406.35
Pd 398.408 404.894 393.65
Pd 404.163 403.026 406.35
Pd 404.163 403.026 393.65
Pd 404.164 396.976 406.35
Pd 404.164 396.976 393.65
Pd 398.411 395.105 406.35
Pd 398.411 395.105 393.65
Pd 399.204 402.447 407.938
Pd 399.204 402.447 392.062
Pd 402.082 398.488 407.938
Pd 402.082 398.488 392.062
Pd 402.081 401.513 407.938
Pd 402.081 401.513 392.062
Pd 397.427 399.999 407.938
Pd 397.427 399.999 392.062
Pd 399.205 397.552 407.938
Pd 399.205 397.552 392.062
Pd 402.571 407.92 403.175
Pd 402.571 407.92 396.825
Pd 393.264 395.103 403.175
Pd 393.264 395.103 396.825
Pd 408.327 400.002 403.175
Pd 408.327 400.002 396.825
Pd 393.262 404.893 403.175
Pd 393.262 404.893 396.825
Pd 402.575 392.081 403.175
Pd 402.575 392.081 396.825
Pd 397.616 392.657 404.763
Pd 397.616 392.657 395.237
Pd 406.244 404.539 404.763
Pd 406.244 404.539 395.237
Pd 406.247 395.464 404.763
Pd 406.247 395.464 395.237
Pd 392.28 399.998 404.763
Pd 392.28 399.998 395.237
Pd 397.612 407.341 404.763
Pd 397.612 407.341 395.237
Pd 391.486 397.55 403.175
Pd 391.486 397.55 396.825
Pd 399.698 391.145 403.175
Pd 399.698 391.145 396.825
Pd 391.484 402.445 403.175
Pd 391.484 402.445 396.825
Pd 395.039 407.341 403.175
Pd 395.039 407.341 396.825
Pd 408.327 403.027 403.175
Pd 408.327 403.027 396.825
Pd 405.448 406.986 403.175
Pd 405.448 406.986 396.825
Pd 399.694 408.855 403.175
Pd 399.694 408.855 396.825
Pd 395.043 392.657 403.175
Pd 395.043 392.657 396.825
Pd 408.328 396.977 403.175
Pd 408.328 396.977 396.825
Pd 405.452 393.016 403.175
Pd 405.452 393.016 396.825
Pd 400 400 409.526
Pd 400 400 390.474
Pd 390.688 404.892 401.588
Pd 390.688 404.892 398.412
Pd 401.781 389.633 401.588
Pd 401.781 389.633 398.412
Pd 392.47 392.656 401.588
Pd 392.47 392.656 398.412
Pd 404.653 409.434 401.588
Pd 404.653 409.434 398.412
Pd 390.691 395.103 401.588
Pd 390.691 395.103 398.412
Pd 401.775 410.368 401.588
Pd 401.775 410.368 398.412
Pd 410.41 398.49 401.588
Pd 410.41 398.49 398.412
Pd 410.409 401.515 401.588
Pd 410.409 401.515 398.412
Pd 392.466 407.34 401.588
Pd 392.466 407.34 398.412
Pd 404.658 390.569 401.588
Pd 404.658 390.569 398.412
Pd 396.822 390.21 403.175
Pd 396.822 390.21 396.825
Pd 396.817 409.789 403.175
Pd 396.817 409.789 396.825
Pd 408.329 393.952 403.175
Pd 408.329 393.952 396.825
Pd 408.326 406.052 403.175
Pd 408.326 406.052 396.825
Pd 389.707 399.997 403.175
Pd 389.707 399.997 396.825
Pd 398.904 388.698 401.588
Pd 398.904 388.698 398.412
Pd 388.912 397.55 401.588
Pd 388.912 397.55 398.412
Pd 410.408 404.54 401.588
Pd 410.408 404.54 398.412
Pd 407.53 408.5 401.588
Pd 407.53 408.5 398.412
Pd 398.898 411.302 401.588
Pd 398.898 411.302 398.412
Pd 410.41 395.465 401.588
Pd 410.41 395.465 398.412
Pd 388.911 402.444 401.588
Pd 388.911 402.444 398.412
Pd 407.534 391.504 401.588
Pd 407.534 391.504 398.412
Pd 394.243 409.788 401.588
Pd 394.243 409.788 398.412
Pd 394.248 390.209 401.588
Pd 394.248 390.209 398.412
Pd 403.863 388.121 400
Pd 403.857 411.881 400
Pd 412.491 400.003 400
Pd 389.893 407.339 400
Pd 389.896 392.655 400
Pd 391.675 390.208 400
Pd 391.67 409.787 400
Pd 400.986 387.186 400
Pd 388.115 404.892 400
Pd 412.49 403.028 400
Pd 406.734 410.947 400
Pd 412.492 396.978 400
Pd 400.98 412.815 400
Pd 406.74 389.057 400
Pd 388.118 395.102 400
Pd 387.134 399.997 401.588
Pd 387.134 399.997 398.412
Pd 396.021 412.236 401.588
Pd 396.021 412.236 398.412
Pd 410.411 392.44 401.588
Pd 410.411 392.44 398.412
Pd 410.407 407.565 401.588
Pd 410.407 407.565 398.412
Pd 396.027 387.762 401.588
Pd 396.027 387.762 398.412
Pd 393.454 387.761 400
Pd 386.338 402.444 400
Pd 412.489 406.053 400
Pd 409.611 410.013 400
Pd 398.102 413.749 400
Pd 412.493 393.953 400
Pd 393.447 412.235 400
Pd 409.617 389.992 400
Pd 398.11 386.25 400
Pd 386.339 397.549 400
Pd 395.835 404.894 407.938
Pd 395.835 404.894 392.062
Pd 406.245 401.514 407.938
Pd 406.245 401.514 392.062
Pd 400.49 406.407 407.938
Pd 400.49 406.407 392.062
Pd 403.367 405.473 407.938
Pd 403.367 405.473 392.062
Pd 406.246 398.489 407.938
Pd 406.246 398.489 392.062
Pd 395.838 395.104 407.938
Pd 395.838 395.104 392.062
Pd 403.37 394.528 407.938
Pd 403.37 394.528 392.062
Pd 394.059 397.551 407.938
Pd 394.059 397.551 392.062
Pd 400.493 393.593 407.938
Pd 400.493 393.593 392.062
Pd 394.057 402.446 407.938
Pd 394.057 402.446 392.062
Pd 396.632 397.552 409.526
Pd 396.632 397.552 390.474
Pd 404.164 400.001 409.526
Pd 404.164 400.001 390.474
Pd 401.286 403.96 409.526
Pd 401.286 403.96 390.474
Pd 396.631 402.446 409.526
Pd 396.631 402.446 390.474
Pd 401.288 396.04 409.526
Pd 401.288 396.04 390.474
Pd 402.571 407.92 406.35
Pd 402.571 407.92 393.65
Pd 393.264 395.103 406.35
Pd 393.264 395.103 393.65
Pd 408.327 400.002 406.35
Pd 408.327 400.002 393.65
Pd 393.262 404.893 406.35
Pd 393.262 404.893 393.65
Pd 402.575 392.081 406.35
Pd 402.575 392.081 393.65
Pd 394.853 399.999 409.526
Pd 394.853 399.999 390.474
Pd 398.408 404.894 409.526
Pd 398.408 404.894 390.474
Pd 404.163 403.026 409.526
Pd 404.163 403.026 390.474
Pd 404.164 396.976 409.526
Pd 404.164 396.976 390.474
Pd 398.411 395.105 409.526
Pd 398.411 395.105 390.474
Pd 391.486 397.55 406.35
Pd 391.486 397.55 393.65
Pd 399.698 391.145 406.35
Pd 399.698 391.145 393.65
Pd 395.039 407.341 406.35
Pd 395.039 407.341 393.65
Pd 391.484 402.445 406.35
Pd 391.484 402.445 393.65
Pd 408.327 403.027 406.35
Pd 408.327 403.027 393.65
Pd 405.448 406.986 406.35
Pd 405.448 406.986 393.65
Pd 399.694 408.855 406.35
Pd 399.694 408.855 393.65
Pd 395.043 392.657 406.35
Pd 395.043 392.657 393.65
Pd 408.328 396.977 406.35
Pd 408.328 396.977 393.65
Pd 405.452 393.016 406.35
Pd 405.452 393.016 393.65
Pd 397.616 392.657 407.938
Pd 397.616 392.657 392.062
Pd 406.244 404.539 407.938
Pd 406.244 404.539 392.062
Pd 406.247 395.464 407.938
Pd 406.247 395.464 392.062
Pd 392.28 399.998 407.938
Pd 392.28 399.998 392.062
Pd 397.612 407.341 407.938
Pd 397.612 407.341 392.062
Pd 399.204 402.447 411.113
Pd 399.204 402.447 388.887
Pd 402.082 398.488 411.113
Pd 402.082 398.488 388.887
Pd 402.081 401.513 411.113
Pd 402.081 401.513 388.887
Pd 397.427 399.999 411.113
Pd 397.427 399.999 388.887
Pd 399.205 397.552 411.113
Pd 399.205 397.552 388.887
Pd 390.688 404.892 404.763
Pd 390.688 404.892 395.237
Pd 401.781 389.633 404.763
Pd 401.781 389.633 395.237
Pd 392.47 392.656 404.763
Pd 392.47 392.656 395.237
Pd 390.691 395.103 404.763
Pd 390.691 395.103 395.237
Pd 401.775 410.368 404.763
Pd 401.775 410.368 395.237
Pd 410.41 398.49 404.763
Pd 410.41 398.49 395.237
Pd 410.409 401.515 404.763
Pd 410.409 401.515 395.237
Pd 392.466 407.34 404.763
Pd 392.466 407.34 395.237
Pd 404.653 409.434 404.763
Pd 404.653 409.434 395.237
Pd 404.658 390.569 404.763
Pd 404.658 390.569 395.237
Pd 396.822 390.21 406.35
Pd 396.822 390.21 393.65
Pd 396.817 409.789 406.35
Pd 396.817 409.789 393.65
Pd 408.329 393.952 406.35
Pd 408.329 393.952 393.65
Pd 408.326 406.052 406.35
Pd 408.326 406.052 393.65
Pd 389.707 399.997 406.35
Pd 389.707 399.997 393.65
Pd 398.904 388.698 404.763
Pd 398.904 388.698 395.237
Pd 388.912 397.55 404.763
Pd 388.912 397.55 395.237
Pd 410.408 404.54 404.763
Pd 410.408 404.54 395.237
Pd 407.53 408.5 404.763
Pd 407.53 408.5 395.237
Pd 410.41 395.465 404.763
Pd 410.41 395.465 395.237
Pd 398.898 411.302 404.763
Pd 398.898 411.302 395.237
Pd 388.911 402.444 404.763
Pd 388.911 402.444 395.237
Pd 407.534 391.504 404.763
Pd 407.534 391.504 395.237
Pd 394.243 409.788 404.763
Pd 394.243 409.788 395.237
Pd 394.248 390.209 404.763
Pd 394.248 390.209 395.237
Pd 400 400 412.701
Pd 400 400 387.299
Pd 403.863 388.121 403.175
Pd 403.863 388.121 396.825
Pd 403.857 411.881 403.175
Pd 403.857 411.881 396.825
Pd 412.491 400.003 403.175
Pd 412.491 400.003 396.825
Pd 389.893 407.339 403.175
Pd 389.893 407.339 396.825
Pd 389.896 392.655 403.175
Pd 389.896 392.655 396.825
Pd 391.675 390.208 403.175
Pd 391.675 390.208 396.825
Pd 391.67 409.787 403.175
Pd 391.67 409.787 396.825
Pd 400.986 387.186 403.175
Pd 400.986 387.186 396.825
Pd 388.115 404.892 403.175
Pd 388.115 404.892 396.825
Pd 412.49 403.028 403.175
Pd 412.49 403.028 396.825
Pd 412.492 396.978 403.175
Pd 412.492 396.978 396.825
Pd 406.734 410.947 403.175
Pd 406.734 410.947 396.825
Pd 400.98 412.815 403.175
Pd 400.98 412.815 396.825
Pd 406.74 389.057 403.175
Pd 406.74 389.057 396.825
Pd 388.118 395.102 403.175
Pd 388.118 395.102 396.825
Pd 387.134 399.997 404.763
Pd 387.134 399.997 395.237
Pd 396.021 412.236 404.763
Pd 396.021 412.236 395.237
Pd 410.411 392.44 404.763
Pd 410.411 392.44 395.237
Pd 410.407 407.565 404.763
Pd 410.407 407.565 395.237
Pd 396.027 387.762 404.763
Pd 396.027 387.762 395.237
Pd 393.454 387.761 403.175
Pd 393.454 387.761 396.825
Pd 412.489 406.053 403.175
Pd 412.489 406.053 396.825
Pd 409.611 410.013 403.175
Pd 409.611 410.013 396.825
Pd 398.102 413.749 403.175
Pd 398.102 413.749 396.825
Pd 412.493 393.953 403.175
Pd 412.493 393.953 396.825
Pd 393.447 412.235 403.175
Pd 393.447 412.235 396.825
Pd 398.11 386.25 403.175
Pd 398.11 386.25 396.825
Pd 386.339 397.549 403.175
Pd 386.339 397.549 396.825
Pd 409.617 389.992 403.175
Pd 409.617 389.992 396.825
Pd 386.338 402.444 403.175
Pd 386.338 402.444 396.825
Pd 402.571 407.92 409.526
Pd 402.571 407.92 390.474
Pd 393.264 395.103 409.526
Pd 393.264 395.103 390.474
Pd 408.327 400.002 409.526
Pd 408.327 400.002 390.474
Pd 393.262 404.893 409.526
Pd 393.262 404.893 390.474
Pd 402.575 392.081 409.526
Pd 402.575 392.081 390.474
Pd 395.835 404.894 411.113
Pd 395.835 404.894 388.887
Pd 400.49 406.407 411.113
Pd 400.49 406.407 388.887
Pd 406.246 398.489 411.113
Pd 406.246 398.489 388.887
Pd 406.245 401.514 411.113
Pd 406.245 401.514 388.887
Pd 403.367 405.473 411.113
Pd 403.367 405.473 388.887
Pd 395.838 395.104 411.113
Pd 395.838 395.104 388.887
Pd 403.37 394.528 411.113
Pd 403.37 394.528 388.887
Pd 394.059 397.551 411.113
Pd 394.059 397.551 388.887
Pd 400.493 393.593 411.113
Pd 400.493 393.593 388.887
Pd 394.057 402.446 411.113
Pd 394.057 402.446 388.887
Pd 391.486 397.55 409.526
Pd 391.486 397.55 390.474
Pd 399.698 391.145 409.526
Pd 399.698 391.145 390.474
Pd 391.484 402.445 409.526
Pd 391.484 402.445 390.474
Pd 395.039 407.341 409.526
Pd 395.039 407.341 390.474
Pd 399.694 408.855 409.526
Pd 399.694 408.855 390.474
Pd 395.043 392.657 409.526
Pd 395.043 392.657 390.474
Pd 408.328 396.977 409.526
Pd 408.328 396.977 390.474
Pd 405.448 406.986 409.526
Pd 405.448 406.986 390.474
Pd 408.327 403.027 409.526
Pd 408.327 403.027 390.474
Pd 405.452 393.016 409.526
Pd 405.452 393.016 390.474
Pd 390.688 404.892 407.938
Pd 390.688 404.892 392.062
Pd 401.781 389.633 407.938
Pd 401.781 389.633 392.062
Pd 392.47 392.656 407.938
Pd 392.47 392.656 392.062
Pd 390.691 395.103 407.938
Pd 390.691 395.103 392.062
Pd 401.775 410.368 407.938
Pd 401.775 410.368 392.062
Pd 410.41 398.49 407.938
Pd 410.41 398.49 392.062
Pd 410.409 401.515 407.938
Pd 410.409 401.515 392.062
Pd 392.466 407.34 407.938
Pd 392.466 407.34 392.062
Pd 404.653 409.434 407.938
Pd 404.653 409.434 392.062
Pd 404.658 390.569 407.938
Pd 404.658 390.569 392.062
Pd 396.632 397.552 412.701
Pd 396.632 397.552 387.299
Pd 404.164 400.001 412.701
Pd 404.164 400.001 387.299
Pd 401.286 403.96 412.701
Pd 401.286 403.96 387.299
Pd 396.631 402.446 412.701
Pd 396.631 402.446 387.299
Pd 401.288 396.04 412.701
Pd 401.288 396.04 387.299
Pd 397.616 392.657 411.113
Pd 397.616 392.657 388.887
Pd 406.244 404.539 411.113
Pd 406.244 404.539 388.887
Pd 406.247 395.464 411.113
Pd 406.247 395.464 388.887
Pd 392.28 399.998 411.113
Pd 392.28 399.998 388.887
Pd 397.612 407.341 411.113
Pd 397.612 407.341 388.887
Pd 394.853 399.999 412.701
Pd 394.853 399.999 387.299
Pd 398.408 404.894 412.701
Pd 398.408 404.894 387.299
Pd 404.164 396.976 412.701
Pd 404.164 396.976 387.299
Pd 404.163 403.026 412.701
Pd 404.163 403.026 387.299
Pd 398.411 395.105 412.701
Pd 398.411 395.105 387.299
Pd 398.904 388.698 407.938
Pd 398.904 388.698 392.062
Pd 388.912 397.55 407.938
Pd 388.912 397.55 392.062
Pd 410.408 404.54 407.938
Pd 410.408 404.54 392.062
Pd 407.53 408.5 407.938
Pd 407.53 408.5 392.062
Pd 398.898 411.302 407.938
Pd 398.898 411.302 392.062
Pd 410.41 395.465 407.938
Pd 410.41 395.465 392.062
Pd 388.911 402.444 407.938
Pd 388.911 402.444 392.062
Pd 407.534 391.504 407.938
Pd 407.534 391.504 392.062
Pd 394.243 409.788 407.938
Pd 394.243 409.788 392.062
Pd 394.248 390.209 407.938
Pd 394.248 390.209 392.062
Pd 403.863 388.121 406.35
Pd 403.863 388.121 393.65
Pd 403.857 411.881 406.35
Pd 403.857 411.881 393.65
Pd 412.491 400.003 406.35
Pd 412.491 400.003 393.65
Pd 389.893 407.339 406.35
Pd 389.893 407.339 393.65
Pd 389.896 392.655 406.35
Pd 389.896 392.655 393.65
Pd 396.822 390.21 409.526
Pd 396.822 390.21 390.474
Pd 408.329 393.952 409.526
Pd 408.329 393.952 390.474
Pd 408.326 406.052 409.526
Pd 408.326 406.052 390.474
Pd 396.817 409.789 409.526
Pd 396.817 409.789 390.474
Pd 389.707 399.997 409.526
Pd 389.707 399.997 390.474
Pd 391.675 390.208 406.35
Pd 391.675 390.208 393.65
Pd 391.67 409.787 406.35
Pd 391.67 409.787 393.65
Pd 400.986 387.186 406.35
Pd 400.986 387.186 393.65
Pd 388.115 404.892 406.35
Pd 388.115 404.892 393.65
Pd 412.49 403.028 406.35
Pd 412.49 403.028 393.65
Pd 406.734 410.947 406.35
Pd 406.734 410.947 393.65
Pd 400.98 412.815 406.35
Pd 400.98 412.815 393.65
Pd 412.492 396.978 406.35
Pd 412.492 396.978 393.65
Pd 406.74 389.057 406.35
Pd 406.74 389.057 393.65
Pd 388.118 395.102 406.35
Pd 388.118 395.102 393.65
Pd 399.204 402.447 414.288
Pd 399.204 402.447 385.711
Pd 402.082 398.488 414.288
Pd 402.082 398.488 385.711
Pd 402.081 401.513 414.288
Pd 402.081 401.513 385.711
Pd 397.427 399.999 414.288
Pd 397.427 399.999 385.711
Pd 399.205 397.552 414.288
Pd 399.205 397.552 385.711
Pd 387.134 399.997 407.938
Pd 387.134 399.997 392.062
Pd 396.021 412.236 407.938
Pd 396.021 412.236 392.062
Pd 410.411 392.44 407.938
Pd 410.411 392.44 392.062
Pd 410.407 407.565 407.938
Pd 410.407 407.565 392.062
Pd 396.027 387.762 407.938
Pd 396.027 387.762 392.062
Pd 393.454 387.761 406.35
Pd 393.454 387.761 393.65
Pd 412.489 406.053 406.35
Pd 412.489 406.053 393.65
Pd 409.611 410.013 406.35
Pd 409.611 410.013 393.65
Pd 398.102 413.749 406.35
Pd 398.102 413.749 393.65
Pd 412.493 393.953 406.35
Pd 412.493 393.953 393.65
Pd 393.447 412.235 406.35
Pd 393.447 412.235 393.65
Pd 398.11 386.25 406.35
Pd 398.11 386.25 393.65
Pd 386.339 397.549 406.35
Pd 386.339 397.549 393.65
Pd 409.617 389.992 406.35
Pd 409.617 389.992 393.65
Pd 386.338 402.444 406.35
Pd 386.338 402.444 393.65
Pd 400 400 415.876
Pd 400 400 384.124
