1132
Atoms. Timestep: 0
Pd 400 400 401.459
Pd 399.242 402.331 400
Pd 401.983 401.441 400
Pd 397.549 399.999 400
Pd 401.983 398.56 400
Pd 399.243 397.669 400
Pd 400 400 398.541
Pd 400 400 404.375
Pd 401.983 398.56 402.919
Pd 401.982 401.441 402.919
Pd 399.242 402.331 402.919
Pd 397.549 399.999 402.919
Pd 399.243 397.669 402.918
Pd 398.483 395.327 401.46
Pd 403.975 397.113 401.46
Pd 396.779 402.339 401.461
Pd 395.087 399.999 401.46
Pd 401.229 403.786 401.461
Pd 403.974 402.889 401.46
Pd 403.98 400.001 401.461
Pd 398.481 404.672 401.46
Pd 401.231 396.215 401.46
Pd 396.781 397.66 401.46
Pd 396.012 404.685 400
Pd 394.311 402.342 400
Pd 403.224 405.24 400
Pd 396.015 395.313 400
Pd 400.472 393.866 400
Pd 403.226 394.762 400
Pd 394.312 397.655 400
Pd 400.469 406.134 400
Pd 397.719 407.014 400
Pd 392.625 399.998 400
Pd 405.968 395.666 400
Pd 405.966 404.337 400
Pd 405.98 398.553 400
Pd 405.979 401.45 400
Pd 397.723 392.985 400
Pd 400 400 395.625
Pd 401.983 398.56 397.081
Pd 401.983 401.441 397.082
Pd 399.242 402.331 397.081
Pd 397.549 400 397.081
Pd 399.243 397.669 397.081
Pd 398.483 395.327 398.54
Pd 403.975 397.113 398.54
Pd 396.779 402.339 398.54
Pd 395.087 399.999 398.54
Pd 401.229 403.786 398.54
Pd 403.974 402.889 398.54
Pd 403.98 400.001 398.54
Pd 398.481 404.672 398.54
Pd 401.231 396.215 398.539
Pd 396.781 397.66 398.539
Pd 400 400 407.286
Pd 401.983 398.559 405.834
Pd 399.242 402.331 405.835
Pd 399.243 397.668 405.834
Pd 397.549 399.999 405.834
Pd 401.983 401.441 405.835
Pd 401.231 396.213 404.38
Pd 396.778 402.339 404.38
Pd 403.982 400.001 404.38
Pd 401.229 403.787 404.38
Pd 398.481 404.672 404.379
Pd 403.975 397.113 404.378
Pd 398.483 395.327 404.378
Pd 396.779 397.658 404.38
Pd 395.087 399.998 404.378
Pd 403.974 402.888 404.379
Pd 396.014 395.312 402.922
Pd 403.227 394.76 402.922
Pd 396.011 404.686 402.922
Pd 405.981 401.45 402.922
Pd 394.311 397.654 402.922
Pd 405.981 398.553 402.922
Pd 400.469 406.136 402.923
Pd 394.309 402.342 402.922
Pd 405.965 404.336 402.92
Pd 405.968 395.666 402.919
Pd 397.719 407.013 402.919
Pd 392.625 399.998 402.919
Pd 400.473 393.864 402.922
Pd 403.224 405.241 402.923
Pd 397.723 392.985 402.919
Pd 407.96 394.219 401.459
Pd 395.246 407.03 401.462
Pd 407.957 405.784 401.46
Pd 396.957 409.355 401.459
Pd 390.162 399.997 401.459
Pd 405.217 406.694 401.462
Pd 391.845 397.651 401.461
Pd 391.843 402.344 401.462
Pd 399.714 391.518 401.461
Pd 405.221 393.309 401.461
Pd 407.978 397.106 401.462
Pd 395.25 392.967 401.461
Pd 399.709 408.482 401.462
Pd 393.54 395.304 401.462
Pd 402.47 392.405 401.462
Pd 407.986 400.002 401.462
Pd 393.538 404.692 401.462
Pd 402.466 407.596 401.463
Pd 407.977 402.898 401.462
Pd 396.962 390.643 401.459
Pd 409.974 395.66 400
Pd 391.067 404.697 400
Pd 409.988 398.555 400
Pd 392.772 392.956 400
Pd 396.202 388.301 399.999
Pd 409.953 392.773 400
Pd 392.769 407.04 400
Pd 396.196 411.697 400
Pd 387.7 399.997 400
Pd 409.949 407.232 400.001
Pd 391.07 395.298 400
Pd 398.954 389.173 399.999
Pd 401.707 409.947 400
Pd 409.972 404.345 400
Pd 394.482 409.374 400
Pd 404.461 409.053 400.001
Pd 389.38 397.648 400
Pd 407.214 391.859 400
Pd 407.21 408.145 400.001
Pd 409.988 401.45 400
Pd 398.949 410.827 400
Pd 389.378 402.346 400
Pd 404.466 390.949 400
Pd 394.486 390.623 399.999
Pd 401.712 390.054 400
Pd 400 400 392.714
Pd 401.983 398.56 394.165
Pd 399.242 402.331 394.166
Pd 399.243 397.669 394.165
Pd 397.549 400 394.165
Pd 401.983 401.442 394.166
Pd 401.232 396.213 395.62
Pd 396.778 402.34 395.62
Pd 403.982 400.001 395.62
Pd 401.23 403.788 395.62
Pd 398.481 404.672 395.622
Pd 403.975 397.114 395.622
Pd 398.483 395.327 395.621
Pd 396.779 397.659 395.62
Pd 395.087 399.999 395.622
Pd 403.974 402.889 395.622
Pd 396.014 395.312 397.077
Pd 403.227 394.76 397.078
Pd 396.011 404.686 397.078
Pd 405.981 401.45 397.078
Pd 394.311 397.655 397.078
Pd 405.981 398.554 397.078
Pd 400.469 406.136 397.078
Pd 394.31 402.343 397.078
Pd 405.966 404.337 397.081
Pd 405.968 395.667 397.081
Pd 397.719 407.014 397.081
Pd 392.625 399.998 397.081
Pd 400.473 393.864 397.077
Pd 403.224 405.242 397.078
Pd 397.723 392.985 397.08
Pd 407.96 394.22 398.541
Pd 395.246 407.031 398.539
Pd 407.957 405.785 398.541
Pd 396.957 409.356 398.541
Pd 390.162 399.997 398.541
Pd 405.217 406.694 398.539
Pd 391.845 397.651 398.538
Pd 391.843 402.344 398.538
Pd 399.714 391.518 398.538
Pd 405.221 393.309 398.538
Pd 407.978 397.106 398.538
Pd 395.25 392.967 398.538
Pd 399.709 408.482 398.539
Pd 393.54 395.304 398.537
Pd 402.47 392.405 398.537
Pd 407.986 400.002 398.538
Pd 393.538 404.692 398.538
Pd 402.466 407.596 398.538
Pd 407.977 402.898 398.539
Pd 396.962 390.643 398.54
Pd 400 399.999 410.189
Pd 397.548 399.999 408.745
Pd 401.983 401.441 408.745
Pd 399.241 402.331 408.745
Pd 399.243 397.668 408.744
Pd 401.984 398.559 408.745
Pd 396.774 402.342 407.297
Pd 401.233 396.208 407.297
Pd 401.231 403.792 407.297
Pd 403.987 400.001 407.297
Pd 396.775 397.655 407.297
Pd 403.974 402.888 407.291
Pd 395.087 399.998 407.291
Pd 398.48 404.672 407.291
Pd 403.975 397.113 407.291
Pd 398.483 395.327 407.291
Pd 397.723 392.985 405.833
Pd 392.625 399.998 405.833
Pd 397.719 407.013 405.834
Pd 405.965 404.336 405.834
Pd 405.967 395.666 405.833
Pd 394.305 402.345 405.842
Pd 400.474 393.859 405.842
Pd 396.009 395.308 405.842
Pd 396.007 404.689 405.842
Pd 403.226 405.247 405.842
Pd 403.229 394.754 405.842
Pd 400.471 406.141 405.842
Pd 405.987 398.553 405.842
Pd 394.306 397.651 405.842
Pd 405.986 401.45 405.842
Pd 393.535 395.3 404.385
Pd 407.992 400.002 404.385
Pd 402.472 392.399 404.385
Pd 399.71 408.486 404.384
Pd 402.468 407.601 404.386
Pd 395.246 392.964 404.383
Pd 391.839 402.347 404.383
Pd 396.962 390.643 404.374
Pd 407.96 394.22 404.374
Pd 395.242 407.033 404.383
Pd 407.957 405.784 404.375
Pd 396.957 409.355 404.375
Pd 390.163 399.997 404.374
Pd 391.84 397.648 404.383
Pd 407.983 397.106 404.383
Pd 399.715 391.513 404.383
Pd 405.219 406.698 404.384
Pd 405.223 393.304 404.383
Pd 407.982 402.898 404.384
Pd 393.533 404.696 404.385
Pd 407.211 408.148 402.923
Pd 394.484 390.621 402.922
Pd 389.375 402.347 402.923
Pd 396.202 388.301 402.915
Pd 409.952 392.773 402.915
Pd 387.7 399.997 402.915
Pd 396.196 411.696 402.916
Pd 407.216 391.856 402.922
Pd 401.708 409.951 402.926
Pd 404.462 409.057 402.926
Pd 391.064 404.699 402.925
Pd 409.992 398.555 402.925
Pd 409.975 404.346 402.923
Pd 401.713 390.05 402.925
Pd 409.992 401.45 402.925
Pd 409.949 407.232 402.916
Pd 409.977 395.659 402.923
Pd 389.377 397.647 402.922
Pd 392.769 392.953 402.925
Pd 398.949 410.83 402.923
Pd 392.765 407.042 402.925
Pd 404.467 390.945 402.925
Pd 398.955 389.169 402.922
Pd 394.479 409.376 402.923
Pd 391.066 395.296 402.925
Pd 406.461 389.494 401.463
Pd 392 409.387 401.463
Pd 390.293 407.048 401.464
Pd 392.005 390.608 401.462
Pd 400.948 412.297 401.464
Pd 411.988 402.898 401.464
Pd 411.996 400.003 401.464
Pd 411.971 394.213 401.462
Pd 409.208 390.408 401.461
Pd 411.99 397.108 401.463
Pd 393.723 388.279 401.461
Pd 386.913 402.348 401.462
Pd 398.189 413.172 401.462
Pd 398.196 386.827 401.461
Pd 393.717 411.717 401.462
Pd 409.202 409.596 401.462
Pd 386.914 397.645 401.461
Pd 411.967 405.793 401.462
Pd 403.71 388.592 401.463
Pd 395.442 385.961 401.457
Pd 385.239 399.996 401.457
Pd 411.939 408.679 401.458
Pd 395.435 414.037 401.458
Pd 411.944 391.327 401.457
Pd 388.597 404.702 401.463
Pd 406.456 410.509 401.464
Pd 390.297 392.946 401.463
Pd 400.954 387.703 401.462
Pd 388.6 395.292 401.463
Pd 403.704 411.41 401.464
Pd 413.997 401.451 400
Pd 397.436 384.486 399.999
Pd 411.199 388.962 400
Pd 397.428 415.513 400.001
Pd 413.998 398.556 400
Pd 389.529 390.598 399.999
Pd 405.706 387.137 399.999
Pd 387.827 392.941 399.999
Pd 389.524 409.396 400
Pd 402.945 413.76 400.001
Pd 405.699 412.866 400.001
Pd 387.823 407.053 400
Pd 408.449 411.961 400.001
Pd 408.455 388.043 400
Pd 391.241 388.264 399.999
Pd 382.78 399.995 400
Pd 400.195 385.357 399.999
Pd 386.132 404.703 400
Pd 386.135 395.289 400
Pd 413.984 404.346 400.001
Pd 413.959 407.24 400.001
Pd 400.188 414.643 400.001
Pd 413.986 395.661 400
Pd 391.235 411.731 400
Pd 394.675 416.375 400.001
Pd 413.963 392.767 400
Pd 394.683 383.622 399.999
Pd 411.193 411.044 400.001
Pd 384.452 402.348 400
Pd 392.955 414.058 400
Pd 402.952 386.241 399.999
Pd 392.962 385.938 399.999
Pd 413.934 389.882 400
Pd 384.453 397.644 400
Pd 413.928 410.125 400.001
Pd 400 400 389.811
Pd 397.548 400 391.255
Pd 401.983 401.442 391.256
Pd 399.242 402.332 391.256
Pd 399.243 397.668 391.255
Pd 401.984 398.56 391.255
Pd 396.774 402.343 392.703
Pd 401.233 396.209 392.703
Pd 401.231 403.793 392.703
Pd 403.987 400.001 392.703
Pd 396.775 397.656 392.703
Pd 403.974 402.889 392.709
Pd 395.087 399.999 392.709
Pd 398.481 404.672 392.709
Pd 403.976 397.114 392.709
Pd 398.483 395.327 392.709
Pd 397.723 392.986 394.166
Pd 392.625 399.998 394.166
Pd 397.719 407.014 394.167
Pd 405.966 404.337 394.167
Pd 405.968 395.667 394.166
Pd 394.305 402.346 394.158
Pd 400.474 393.859 394.158
Pd 396.009 395.309 394.158
Pd 396.007 404.69 394.158
Pd 403.226 405.247 394.158
Pd 403.229 394.755 394.158
Pd 400.471 406.142 394.158
Pd 405.987 398.554 394.158
Pd 394.306 397.651 394.158
Pd 405.986 401.45 394.158
Pd 393.536 395.301 395.614
Pd 407.992 400.002 395.615
Pd 402.472 392.4 395.614
Pd 399.71 408.487 395.617
Pd 402.468 407.602 395.615
Pd 395.246 392.964 395.616
Pd 391.839 402.347 395.617
Pd 396.963 390.644 395.625
Pd 407.96 394.22 395.626
Pd 395.243 407.034 395.617
Pd 407.957 405.784 395.626
Pd 396.958 409.355 395.626
Pd 390.163 399.998 395.626
Pd 391.841 397.649 395.617
Pd 407.983 397.106 395.617
Pd 399.715 391.514 395.616
Pd 405.219 406.698 395.617
Pd 405.223 393.305 395.617
Pd 407.982 402.898 395.617
Pd 393.533 404.696 395.615
Pd 407.211 408.148 397.078
Pd 394.484 390.621 397.077
Pd 389.376 402.348 397.077
Pd 396.202 388.302 397.084
Pd 409.952 392.773 397.084
Pd 387.701 399.997 397.084
Pd 396.196 411.697 397.085
Pd 407.216 391.856 397.077
Pd 401.708 409.951 397.075
Pd 404.462 409.057 397.075
Pd 391.064 404.7 397.075
Pd 409.993 398.555 397.075
Pd 409.975 404.346 397.078
Pd 401.713 390.05 397.075
Pd 409.992 401.451 397.075
Pd 409.949 407.232 397.085
Pd 409.978 395.66 397.077
Pd 389.377 397.647 397.077
Pd 392.769 392.954 397.075
Pd 398.95 410.83 397.078
Pd 392.765 407.043 397.075
Pd 404.467 390.946 397.075
Pd 398.955 389.17 397.077
Pd 394.479 409.376 397.078
Pd 391.067 395.296 397.075
Pd 406.461 389.494 398.536
Pd 392 409.387 398.537
Pd 390.293 407.049 398.537
Pd 392.005 390.608 398.536
Pd 400.948 412.298 398.538
Pd 411.989 402.899 398.537
Pd 411.996 400.003 398.537
Pd 411.971 394.213 398.538
Pd 409.208 390.408 398.538
Pd 411.99 397.108 398.537
Pd 393.723 388.279 398.538
Pd 386.913 402.348 398.538
Pd 398.189 413.172 398.539
Pd 398.196 386.827 398.538
Pd 393.717 411.718 398.539
Pd 409.203 409.596 398.539
Pd 386.914 397.645 398.538
Pd 411.968 405.793 398.539
Pd 403.71 388.592 398.536
Pd 395.442 385.961 398.542
Pd 385.239 399.996 398.542
Pd 411.939 408.679 398.543
Pd 395.435 414.037 398.543
Pd 411.944 391.327 398.542
Pd 388.597 404.702 398.537
Pd 406.456 410.51 398.538
Pd 390.297 392.946 398.536
Pd 400.954 387.703 398.536
Pd 388.6 395.292 398.536
Pd 403.704 411.41 398.537
Pd 400 399.999 413.071
Pd 401.983 398.559 411.642
Pd 397.548 399.999 411.642
Pd 399.242 402.33 411.642
Pd 399.243 397.668 411.642
Pd 401.983 401.441 411.642
Pd 403.974 397.113 410.19
Pd 398.483 395.327 410.19
Pd 398.481 404.671 410.19
Pd 403.973 402.888 410.19
Pd 395.088 399.998 410.19
Pd 403.996 400 410.208
Pd 396.767 402.347 410.208
Pd 396.768 397.65 410.208
Pd 401.234 403.8 410.208
Pd 401.236 396.2 410.208
Pd 405.997 401.45 408.756
Pd 405.998 398.552 408.756
Pd 400.476 393.848 408.756
Pd 400.473 406.151 408.756
Pd 403.233 394.745 408.756
Pd 396.001 395.301 408.756
Pd 394.295 402.351 408.756
Pd 394.297 397.646 408.756
Pd 403.23 405.256 408.756
Pd 405.964 404.336 408.735
Pd 397.719 407.012 408.734
Pd 397.723 392.986 408.734
Pd 395.999 404.696 408.756
Pd 392.626 399.998 408.734
Pd 405.967 395.667 408.734
Pd 402.471 407.613 407.304
Pd 393.523 404.703 407.303
Pd 402.476 392.387 407.303
Pd 408.005 400.002 407.304
Pd 393.525 395.293 407.303
Pd 405.224 406.707 407.3
Pd 395.238 392.956 407.299
Pd 391.829 402.351 407.299
Pd 407.956 405.783 407.277
Pd 399.716 391.502 407.299
Pd 399.712 408.497 407.3
Pd 405.228 393.295 407.299
Pd 390.163 399.997 407.277
Pd 407.992 402.899 407.3
Pd 396.958 409.354 407.277
Pd 396.963 390.644 407.276
Pd 395.235 407.041 407.3
Pd 407.959 394.22 407.277
Pd 407.994 397.104 407.299
Pd 391.831 397.644 407.299
Pd 392.76 392.945 405.846
Pd 410.004 398.553 405.846
Pd 404.472 390.934 405.846
Pd 391.056 395.289 405.846
Pd 404.467 409.067 405.847
Pd 401.711 409.962 405.846
Pd 410.003 401.451 405.846
Pd 401.716 390.038 405.846
Pd 391.054 404.705 405.846
Pd 392.756 407.05 405.846
Pd 409.951 392.774 405.82
Pd 396.203 388.303 405.82
Pd 387.702 399.996 405.82
Pd 409.985 404.348 405.841
Pd 407.221 391.847 405.841
Pd 409.987 395.657 405.841
Pd 394.478 390.613 405.84
Pd 389.366 402.351 405.841
Pd 398.95 410.839 405.841
Pd 398.956 389.159 405.84
Pd 409.947 407.231 405.821
Pd 396.197 411.695 405.821
Pd 394.473 409.383 405.841
Pd 389.368 397.643 405.841
Pd 407.216 408.156 405.841
Pd 391.998 390.601 404.386
Pd 411.998 402.9 404.387
Pd 406.466 389.485 404.386
Pd 388.591 395.288 404.386
Pd 406.46 410.517 404.388
Pd 411.978 394.211 404.382
Pd 398.195 386.819 404.382
Pd 411.999 397.106 404.387
Pd 388.589 404.705 404.387
Pd 393.712 411.724 404.383
Pd 386.906 402.35 404.382
Pd 393.719 388.273 404.382
Pd 386.907 397.643 404.382
Pd 411.974 405.795 404.383
Pd 409.212 390.402 404.382
Pd 385.242 399.996 404.365
Pd 400.949 412.306 404.387
Pd 391.993 409.394 404.387
Pd 395.436 414.034 404.366
Pd 400.956 387.694 404.386
Pd 411.937 408.677 404.366
Pd 390.289 392.94 404.388
Pd 390.285 407.054 404.388
Pd 395.443 385.963 404.364
Pd 412.005 400.003 404.388
Pd 403.713 388.583 404.388
Pd 409.207 409.602 404.383
Pd 398.188 413.179 404.383
Pd 411.942 391.328 404.365
Pd 403.707 411.419 404.389
Pd 413.966 392.765 402.925
Pd 391.233 411.735 402.928
Pd 400.195 385.352 402.926
Pd 397.435 384.482 402.924
Pd 414.002 398.555 402.929
Pd 413.991 395.659 402.927
Pd 384.449 397.644 402.924
Pd 400.187 414.647 402.928
Pd 392.953 414.062 402.925
Pd 392.961 385.934 402.924
Pd 397.427 415.517 402.925
Pd 413.962 407.241 402.925
Pd 411.202 388.959 402.924
Pd 391.239 388.26 402.926
Pd 411.196 411.047 402.925
Pd 413.931 389.884 402.911
Pd 402.953 386.236 402.928
Pd 408.452 411.964 402.928
Pd 405.701 412.871 402.929
Pd 382.784 399.995 402.911
Pd 405.708 387.132 402.928
Pd 389.526 390.595 402.928
Pd 402.946 413.765 402.929
Pd 394.675 416.372 402.912
Pd 414.002 401.452 402.929
Pd 387.819 407.055 402.928
Pd 408.458 388.039 402.927
Pd 386.127 404.704 402.927
Pd 389.521 409.399 402.929
Pd 384.448 402.348 402.924
Pd 413.926 410.123 402.913
Pd 386.13 395.288 402.927
Pd 394.684 383.625 402.911
Pd 387.822 392.938 402.928
Pd 413.988 404.348 402.928
Pd 396.666 417.851 401.466
Pd 415.976 405.795 401.467
Pd 415.952 391.322 401.465
Pd 390.474 414.074 401.467
Pd 383.671 395.289 401.466
Pd 413.183 412.489 401.467
Pd 390.481 385.921 401.466
Pd 415.979 394.213 401.466
Pd 383.669 404.702 401.466
Pd 407.701 385.685 401.466
Pd 416 400.004 401.467
Pd 388.766 388.252 401.466
Pd 392.204 383.599 401.465
Pd 385.359 392.938 401.466
Pd 385.356 407.054 401.467
Pd 413.189 387.518 401.465
Pd 399.434 383.014 401.466
Pd 399.425 416.985 401.467
Pd 410.441 413.409 401.467
Pd 404.94 415.218 401.468
Pd 381.993 402.346 401.465
Pd 404.948 384.784 401.466
Pd 407.694 414.319 401.468
Pd 392.196 416.397 401.466
Pd 381.994 397.645 401.465
Pd 402.192 383.894 401.466
Pd 410.449 386.596 401.466
Pd 415.995 397.107 401.467
Pd 415.994 402.901 401.467
Pd 387.058 390.592 401.466
Pd 402.183 416.108 401.468
Pd 415.947 408.687 401.466
Pd 387.053 409.401 401.467
Pd 388.76 411.742 401.467
Pd 400 400.001 386.929
Pd 401.984 398.56 388.358
Pd 397.549 400 388.358
Pd 399.242 402.332 388.358
Pd 399.243 397.669 388.358
Pd 401.983 401.442 388.358
Pd 403.975 397.114 389.81
Pd 398.483 395.328 389.81
Pd 398.481 404.672 389.81
Pd 403.973 402.889 389.81
Pd 395.088 399.999 389.81
Pd 403.996 400.002 389.792
Pd 396.767 402.348 389.792
Pd 396.768 397.651 389.792
Pd 401.234 403.801 389.792
Pd 401.236 396.201 389.792
Pd 405.997 401.451 391.244
Pd 405.998 398.553 391.244
Pd 400.477 393.849 391.244
Pd 400.473 406.152 391.244
Pd 403.233 394.745 391.244
Pd 396.001 395.302 391.244
Pd 394.296 402.351 391.244
Pd 394.297 397.646 391.244
Pd 403.231 405.257 391.244
Pd 405.965 404.336 391.266
Pd 397.72 407.013 391.266
Pd 397.723 392.987 391.265
Pd 395.999 404.697 391.244
Pd 392.626 399.998 391.266
Pd 405.967 395.668 391.266
Pd 402.472 407.614 392.697
Pd 393.523 404.704 392.697
Pd 402.476 392.388 392.696
Pd 408.005 400.002 392.697
Pd 393.525 395.294 392.696
Pd 405.224 406.708 392.701
Pd 395.239 392.957 392.7
Pd 391.83 402.352 392.701
Pd 407.956 405.784 392.724
Pd 399.716 391.503 392.7
Pd 399.712 408.498 392.701
Pd 405.228 393.295 392.7
Pd 390.164 399.998 392.723
Pd 407.993 402.9 392.701
Pd 396.958 409.354 392.724
Pd 396.963 390.645 392.723
Pd 395.235 407.042 392.701
Pd 407.959 394.221 392.723
Pd 407.994 397.105 392.701
Pd 391.831 397.644 392.7
Pd 392.76 392.946 394.154
Pd 410.004 398.554 394.154
Pd 404.472 390.935 394.154
Pd 391.056 395.29 394.154
Pd 404.467 409.068 394.155
Pd 401.711 409.963 394.154
Pd 410.004 401.452 394.154
Pd 401.716 390.039 394.154
Pd 391.054 404.706 394.154
Pd 392.757 407.051 394.154
Pd 409.951 392.774 394.18
Pd 396.203 388.303 394.179
Pd 387.702 399.997 394.18
Pd 409.985 404.348 394.16
Pd 407.221 391.848 394.159
Pd 409.987 395.657 394.159
Pd 394.478 390.614 394.159
Pd 389.367 402.351 394.159
Pd 398.95 410.84 394.16
Pd 398.956 389.16 394.159
Pd 409.947 407.231 394.18
Pd 396.197 411.695 394.18
Pd 394.473 409.384 394.159
Pd 389.368 397.644 394.159
Pd 407.217 408.156 394.16
Pd 391.998 390.602 395.613
Pd 411.998 402.9 395.614
Pd 406.466 389.486 395.613
Pd 388.591 395.288 395.613
Pd 406.46 410.518 395.614
Pd 411.978 394.211 395.617
Pd 398.196 386.82 395.617
Pd 411.999 397.106 395.613
Pd 388.589 404.706 395.613
Pd 393.713 411.724 395.618
Pd 386.906 402.35 395.617
Pd 393.719 388.273 395.617
Pd 386.907 397.643 395.617
Pd 411.975 405.796 395.618
Pd 409.212 390.402 395.617
Pd 385.242 399.996 395.635
Pd 400.949 412.307 395.614
Pd 391.993 409.394 395.613
Pd 395.436 414.035 395.635
Pd 400.956 387.694 395.613
Pd 411.937 408.678 395.635
Pd 390.289 392.941 395.611
Pd 390.286 407.054 395.612
Pd 395.443 385.963 395.634
Pd 412.006 400.003 395.612
Pd 403.713 388.583 395.611
Pd 409.207 409.603 395.618
Pd 398.189 413.18 395.618
Pd 411.942 391.329 395.635
Pd 403.707 411.419 395.613
Pd 413.966 392.766 397.075
Pd 391.233 411.735 397.073
Pd 400.195 385.353 397.072
Pd 397.435 384.482 397.075
Pd 414.003 398.555 397.072
Pd 413.991 395.659 397.073
Pd 384.449 397.644 397.075
Pd 400.188 414.648 397.073
Pd 392.954 414.062 397.076
Pd 392.961 385.935 397.075
Pd 397.427 415.517 397.076
Pd 413.962 407.242 397.076
Pd 411.202 388.959 397.075
Pd 391.239 388.26 397.072
Pd 411.196 411.047 397.076
Pd 413.931 389.884 397.088
Pd 402.953 386.236 397.071
Pd 408.452 411.965 397.074
Pd 405.701 412.871 397.072
Pd 382.784 399.996 397.088
Pd 405.708 387.132 397.071
Pd 389.526 390.595 397.071
Pd 402.946 413.765 397.072
Pd 394.676 416.372 397.089
Pd 414.002 401.452 397.072
Pd 387.819 407.055 397.072
Pd 408.458 388.04 397.072
Pd 386.127 404.705 397.073
Pd 389.521 409.399 397.072
Pd 384.448 402.348 397.075
Pd 413.926 410.123 397.089
Pd 386.13 395.288 397.072
Pd 394.684 383.625 397.087
Pd 387.822 392.938 397.071
Pd 413.989 404.348 397.073
Pd 396.666 417.851 398.535
Pd 415.976 405.795 398.534
Pd 415.952 391.322 398.534
Pd 390.474 414.074 398.534
Pd 383.671 395.289 398.533
Pd 413.183 412.489 398.535
Pd 390.481 385.921 398.533
Pd 415.979 394.213 398.534
Pd 383.669 404.702 398.534
Pd 407.701 385.685 398.533
Pd 416 400.004 398.533
Pd 388.766 388.252 398.532
Pd 392.204 383.599 398.533
Pd 385.359 392.938 398.533
Pd 385.356 407.054 398.533
Pd 413.19 387.518 398.534
Pd 399.434 383.015 398.533
Pd 399.425 416.985 398.534
Pd 410.442 413.409 398.534
Pd 404.94 415.219 398.534
Pd 381.993 402.346 398.534
Pd 404.948 384.784 398.532
Pd 407.694 414.319 398.534
Pd 392.196 416.397 398.535
Pd 381.994 397.645 398.534
Pd 402.192 383.894 398.532
Pd 410.449 386.597 398.533
Pd 415.995 397.108 398.533
Pd 415.994 402.901 398.534
Pd 387.058 390.592 398.532
Pd 402.184 416.108 398.534
Pd 415.947 408.687 398.535
Pd 387.053 409.401 398.533
Pd 388.76 411.742 398.533
Pd 400 399.999 415.872
Pd 401.972 401.433 414.479
Pd 401.972 398.567 414.479
Pd 397.562 399.999 414.479
Pd 399.246 402.318 414.479
Pd 399.247 397.68 414.479
Pd 398.485 404.657 413.029
Pd 395.102 399.998 413.028
Pd 403.963 397.122 413.028
Pd 398.488 395.341 413.028
Pd 403.961 402.879 413.029
Pd 401.235 396.202 413.072
Pd 396.769 402.345 413.072
Pd 396.77 397.651 413.072
Pd 403.993 400 413.073
Pd 401.233 403.797 413.073
Pd 394.294 402.348 411.625
Pd 396.001 404.698 411.625
Pd 403.236 394.746 411.624
Pd 400.473 393.848 411.624
Pd 392.64 399.998 411.572
Pd 405.953 404.327 411.573
Pd 397.724 406.998 411.573
Pd 397.727 392.999 411.572
Pd 405.955 395.675 411.573
Pd 405.996 401.453 411.625
Pd 396.003 395.299 411.624
Pd 394.295 397.648 411.624
Pd 403.233 405.255 411.625
Pd 405.997 398.548 411.625
Pd 400.47 406.151 411.625
Pd 396.967 390.657 410.116
Pd 407.948 394.228 410.117
Pd 396.962 409.34 410.117
Pd 390.178 399.997 410.117
Pd 407.945 405.775 410.117
Pd 399.711 391.5 410.169
Pd 407.994 397.098 410.17
Pd 391.827 397.648 410.169
Pd 405.229 406.706 410.17
Pd 395.238 407.045 410.17
Pd 402.476 392.385 410.177
Pd 393.524 395.292 410.177
Pd 402.472 407.615 410.178
Pd 408.006 400.002 410.178
Pd 393.521 404.704 410.178
Pd 399.707 408.499 410.17
Pd 395.241 392.951 410.169
Pd 405.233 393.296 410.169
Pd 391.826 402.347 410.17
Pd 407.993 402.905 410.17
Pd 407.223 408.154 408.714
Pd 389.363 397.648 408.713
Pd 394.481 390.607 408.713
Pd 389.362 402.345 408.713
Pd 398.943 410.842 408.714
Pd 409.987 395.65 408.714
Pd 407.227 391.849 408.713
Pd 394.476 409.389 408.714
Pd 404.475 390.933 408.723
Pd 401.714 390.035 408.723
Pd 391.05 404.704 408.724
Pd 391.052 395.29 408.723
Pd 409.985 404.355 408.714
Pd 398.949 389.157 408.713
Pd 392.76 392.941 408.723
Pd 410.006 401.454 408.724
Pd 392.756 407.054 408.724
Pd 410.007 398.55 408.724
Pd 404.47 409.069 408.724
Pd 401.709 409.965 408.724
Pd 409.939 392.782 408.663
Pd 409.935 407.222 408.664
Pd 396.201 411.681 408.663
Pd 387.716 399.996 408.663
Pd 396.207 388.316 408.662
Pd 398.188 386.817 407.258
Pd 403.707 411.42 407.271
Pd 386.903 397.649 407.258
Pd 393.717 411.73 407.259
Pd 390.284 407.055 407.27
Pd 406.466 410.517 407.269
Pd 392 390.596 407.267
Pd 406.471 389.486 407.268
Pd 411.999 402.905 407.268
Pd 403.713 388.581 407.27
Pd 400.951 387.69 407.267
Pd 390.288 392.939 407.27
Pd 412.007 400.003 407.271
Pd 400.944 412.309 407.269
Pd 391.995 409.399 407.268
Pd 411.974 405.803 407.259
Pd 388.584 404.702 407.268
Pd 412 397.1 407.268
Pd 388.587 395.291 407.268
Pd 393.723 388.266 407.258
Pd 409.214 409.599 407.259
Pd 411.977 394.203 407.259
Pd 398.181 413.181 407.259
Pd 409.219 390.405 407.258
Pd 386.901 402.343 407.259
Pd 395.44 414.019 407.213
Pd 411.925 408.668 407.213
Pd 385.257 399.996 407.212
Pd 411.929 391.337 407.212
Pd 395.448 385.978 407.212
Pd 400.18 414.647 405.815
Pd 391.244 388.255 405.813
Pd 386.125 404.698 405.814
Pd 408.457 411.961 405.815
Pd 400.188 385.352 405.813
Pd 389.529 390.594 405.816
Pd 392.968 385.93 405.806
Pd 413.963 392.758 405.806
Pd 397.427 384.482 405.806
Pd 413.987 404.354 405.814
Pd 405.709 387.135 405.816
Pd 405.703 412.868 405.817
Pd 414 401.454 405.817
Pd 414 398.552 405.817
Pd 402.95 386.237 405.816
Pd 402.942 413.764 405.817
Pd 387.819 407.052 405.817
Pd 386.127 395.294 405.813
Pd 413.989 395.652 405.814
Pd 389.524 409.4 405.817
Pd 387.822 392.941 405.816
Pd 413.911 410.112 405.767
Pd 391.238 411.739 405.814
Pd 413.959 407.249 405.807
Pd 397.419 415.516 405.807
Pd 384.447 397.651 405.806
Pd 413.916 389.895 405.766
Pd 382.802 399.995 405.766
Pd 411.208 388.964 405.806
Pd 384.445 402.34 405.806
Pd 394.681 416.354 405.767
Pd 411.202 411.042 405.807
Pd 392.96 414.066 405.807
Pd 408.464 388.043 405.813
Pd 394.69 383.642 405.765
Pd 396.667 382.153 404.357
Pd 396.667 382.153 401.466
Pd 396.667 382.153 398.533
Pd 388.769 411.74 404.365
Pd 413.193 387.527 404.357
Pd 415.943 391.315 404.358
Pd 415.991 400.004 404.365
Pd 388.775 388.254 404.364
Pd 402.177 416.1 404.365
Pd 396.658 417.845 404.358
Pd 385.364 392.947 404.364
Pd 381.995 402.336 404.358
Pd 392.206 416.397 404.358
Pd 381.997 397.654 404.357
Pd 415.939 408.693 404.359
Pd 392.215 383.598 404.357
Pd 390.485 414.075 404.363
Pd 387.066 390.597 404.364
Pd 399.416 416.979 404.363
Pd 383.673 395.3 404.362
Pd 402.185 383.901 404.364
Pd 415.968 405.802 404.363
Pd 404.945 384.793 404.364
Pd 415.986 397.103 404.365
Pd 385.361 407.045 404.365
Pd 390.492 385.92 404.362
Pd 410.452 386.606 404.362
Pd 387.061 409.396 404.365
Pd 407.702 385.695 404.364
Pd 415.971 394.206 404.363
Pd 399.425 383.02 404.362
Pd 407.695 414.308 404.365
Pd 413.186 412.479 404.359
Pd 415.985 402.905 404.365
Pd 383.671 404.691 404.363
Pd 404.937 415.209 404.366
Pd 410.445 413.399 404.363
Pd 400 400.001 384.128
Pd 401.972 401.434 385.521
Pd 401.973 398.568 385.521
Pd 397.562 400 385.521
Pd 399.246 402.319 385.521
Pd 399.248 397.682 385.521
Pd 398.486 404.658 386.972
Pd 395.103 399.999 386.971
Pd 403.963 397.123 386.971
Pd 398.488 395.342 386.971
Pd 403.962 402.88 386.972
Pd 401.235 396.204 386.927
Pd 396.769 402.347 386.928
Pd 396.771 397.653 386.927
Pd 403.993 400.002 386.928
Pd 401.233 403.798 386.928
Pd 394.295 402.349 388.375
Pd 396.001 404.699 388.376
Pd 403.236 394.747 388.375
Pd 400.474 393.849 388.375
Pd 392.641 399.999 388.427
Pd 405.953 404.328 388.428
Pd 397.724 406.999 388.428
Pd 397.728 393.001 388.427
Pd 405.955 395.676 388.427
Pd 405.997 401.454 388.376
Pd 396.004 395.3 388.375
Pd 394.296 397.649 388.375
Pd 403.233 405.256 388.376
Pd 405.997 398.55 388.375
Pd 400.47 406.153 388.376
Pd 396.967 390.658 389.883
Pd 407.948 394.229 389.883
Pd 396.962 409.341 389.884
Pd 390.178 399.998 389.883
Pd 407.945 405.776 389.884
Pd 399.711 391.501 389.83
Pd 407.995 397.099 389.83
Pd 391.827 397.649 389.83
Pd 405.23 406.707 389.831
Pd 395.238 407.046 389.831
Pd 402.476 392.386 389.822
Pd 393.524 395.293 389.822
Pd 402.472 407.616 389.823
Pd 408.007 400.003 389.822
Pd 393.522 404.705 389.822
Pd 399.707 408.5 389.831
Pd 395.242 392.952 389.83
Pd 405.233 393.297 389.83
Pd 391.826 402.348 389.83
Pd 407.993 402.906 389.831
Pd 407.224 408.155 391.287
Pd 389.363 397.649 391.286
Pd 394.482 390.608 391.286
Pd 389.362 402.346 391.286
Pd 398.944 410.843 391.287
Pd 409.988 395.651 391.286
Pd 407.228 391.85 391.286
Pd 394.477 409.39 391.287
Pd 404.476 390.934 391.276
Pd 401.714 390.036 391.276
Pd 391.05 404.705 391.276
Pd 391.053 395.291 391.276
Pd 409.986 404.356 391.287
Pd 398.95 389.158 391.286
Pd 392.76 392.942 391.276
Pd 410.006 401.455 391.277
Pd 392.756 407.055 391.277
Pd 410.007 398.551 391.277
Pd 404.471 409.07 391.277
Pd 401.709 409.966 391.277
Pd 409.94 392.783 391.337
Pd 409.936 407.223 391.338
Pd 396.201 411.682 391.337
Pd 387.717 399.997 391.337
Pd 396.207 388.317 391.336
Pd 398.188 386.818 392.741
Pd 403.708 411.421 392.73
Pd 386.903 397.65 392.741
Pd 393.718 411.73 392.742
Pd 390.284 407.055 392.73
Pd 406.466 410.518 392.733
Pd 392 390.597 392.731
Pd 406.471 389.486 392.732
Pd 411.999 402.906 392.732
Pd 403.714 388.582 392.729
Pd 400.951 387.691 392.731
Pd 390.288 392.94 392.729
Pd 412.007 400.003 392.73
Pd 400.945 412.31 392.733
Pd 391.996 409.4 392.732
Pd 411.974 405.804 392.742
Pd 388.585 404.703 392.732
Pd 412.001 397.101 392.732
Pd 388.587 395.292 392.732
Pd 393.724 388.267 392.741
Pd 409.215 409.6 392.742
Pd 411.978 394.203 392.741
Pd 398.181 413.182 392.742
Pd 409.22 390.405 392.741
Pd 386.902 402.344 392.741
Pd 395.441 414.02 392.788
Pd 411.925 408.669 392.788
Pd 385.258 399.996 392.787
Pd 411.929 391.338 392.787
Pd 395.448 385.978 392.787
Pd 400.181 414.648 394.187
Pd 391.244 388.256 394.185
Pd 386.125 404.698 394.186
Pd 408.458 411.961 394.187
Pd 400.188 385.353 394.185
Pd 389.529 390.594 394.183
Pd 392.968 385.93 394.193
Pd 413.963 392.758 394.193
Pd 397.427 384.483 394.193
Pd 413.987 404.355 394.187
Pd 405.71 387.135 394.183
Pd 405.703 412.868 394.184
Pd 414 401.455 394.184
Pd 414.001 398.553 394.184
Pd 402.95 386.238 394.183
Pd 402.943 413.764 394.184
Pd 387.819 407.052 394.184
Pd 386.127 395.295 394.186
Pd 413.989 395.653 394.186
Pd 389.524 409.4 394.184
Pd 387.823 392.942 394.183
Pd 413.911 410.113 394.235
Pd 391.238 411.74 394.187
Pd 413.959 407.25 394.194
Pd 397.419 415.517 394.194
Pd 384.447 397.652 394.193
Pd 413.916 389.895 394.233
Pd 382.802 399.996 394.233
Pd 411.208 388.964 394.193
Pd 384.446 402.341 394.193
Pd 394.681 416.355 394.234
Pd 411.202 411.042 394.194
Pd 392.96 414.067 394.194
Pd 408.464 388.044 394.186
Pd 394.69 383.643 394.233
Pd 396.667 382.153 395.641
Pd 388.769 411.74 395.636
Pd 413.193 387.528 395.642
Pd 415.944 391.315 395.642
Pd 415.991 400.004 395.635
Pd 388.776 388.255 395.635
Pd 402.177 416.1 395.636
Pd 396.658 417.845 395.643
Pd 385.364 392.947 395.635
Pd 381.995 402.336 395.642
Pd 392.206 416.398 395.643
Pd 381.997 397.655 395.642
Pd 415.939 408.693 395.643
Pd 392.215 383.599 395.641
Pd 390.485 414.075 395.638
Pd 387.066 390.598 395.634
Pd 399.416 416.98 395.638
Pd 383.674 395.3 395.637
Pd 402.185 383.901 395.635
Pd 415.968 405.802 395.638
Pd 404.945 384.793 395.634
Pd 415.986 397.104 395.636
Pd 385.361 407.046 395.636
Pd 390.492 385.92 395.637
Pd 410.453 386.607 395.637
Pd 387.061 409.396 395.635
Pd 407.702 385.695 395.635
Pd 415.971 394.206 395.637
Pd 399.425 383.02 395.637
Pd 407.695 414.309 395.636
Pd 413.187 412.48 395.643
Pd 415.985 402.905 395.636
Pd 383.671 404.692 395.637
Pd 404.938 415.21 395.636
Pd 410.446 413.399 395.638
