1098
CSIRO Nanostructure Databank - Palladium Nanoparticle Data Set (002402.xyz)
Pd 407.428 399.987 412.517
Pd 404.435 401.427 409.068
Pd 403.739 403.87 407.739
Pd 401.161 407.499 408.124
Pd 399.785 411.792 409.751
Pd 398.741 416.443 411.477
Pd 409.883 399.038 413.152
Pd 409.489 400.042 410.534
Pd 407.097 400.758 409.949
Pd 408.951 402.181 409.266
Pd 406.121 402.874 408.19
Pd 405.767 405.497 407.166
Pd 403.013 406.264 406.544
Pd 402.887 409.082 406.579
Pd 401 410.335 408.218
Pd 400.87 413.321 407.918
Pd 399.606 414.63 409.611
Pd 400.967 416.239 407.613
Pd 401.688 419.116 407.386
Pd 415.331 400.368 413.801
Pd 414.518 401.162 410.8
Pd 411.807 401.527 410.099
Pd 411.143 403.665 408.615
Pd 408.425 404.232 407.707
Pd 408.169 406.877 406.504
Pd 405.454 407.521 405.806
Pd 405.161 410.103 405.822
Pd 402.821 411.57 406.557
Pd 404.949 412.811 405.359
Pd 402.588 414.333 406.179
Pd 404.39 415.527 404.628
Pd 402.434 417.283 405.824
Pd 413.826 399.295 415.864
Pd 416.416 402.815 409.933
Pd 413.621 403.145 409.106
Pd 413.033 405.317 407.47
Pd 410.44 406.19 407.05
Pd 409.99 408.15 405.259
Pd 407.376 408.885 404.668
Pd 409.435 410.233 403.608
Pd 407.369 411.647 404.649
Pd 409.261 412.782 403.182
Pd 406.924 414.415 403.855
Pd 406.531 417.034 403.04
Pd 404.238 418.19 403.815
Pd 412.679 398.544 413.691
Pd 418.234 403.802 407.846
Pd 415.674 404.2 407.713
Pd 415.184 406.814 406.519
Pd 412.532 407.487 405.777
Pd 414.289 409.248 405.242
Pd 411.958 409.723 404.28
Pd 414.252 411.731 403.71
Pd 411.723 412.36 402.85
Pd 411.668 414.883 401.85
Pd 409.082 415.767 402.459
Pd 411.252 417.533 401.197
Pd 408.568 418.094 401.514
Pd 417.162 400.89 411.404
Pd 420.213 405.82 407.93
Pd 417.568 406.309 407.592
Pd 419.265 408.618 407.575
Pd 417.05 408.644 406.047
Pd 418.894 410.337 405.411
Pd 416.641 410.908 404.33
Pd 416.564 413.181 403.019
Pd 413.901 414.168 402.336
Pd 416.246 415.452 401.862
Pd 413.879 416.817 401.545
Pd 413.972 419.52 400.913
Pd 408.054 420.651 401.199
Pd 423.897 406.33 410.07
Pd 419.101 401.679 409.904
Pd 421.39 408.084 408.881
Pd 424.591 403.966 413.551
Pd 421.349 410.07 406.305
Pd 421.39 411.966 404.925
Pd 419.017 412.361 403.55
Pd 418.839 414.966 402.937
Pd 417.51 417.219 403.361
Pd 417.174 419.516 402.281
Pd 416.12 417.923 400.93
Pd 414.881 421.164 402.563
Pd 410.607 419.652 400.904
Pd 408.926 401.428 414.365
Pd 405.196 400.619 411.732
Pd 405.94 399.441 416.975
Pd 403.276 403.347 410.161
Pd 403.91 402.452 412.809
Pd 402.656 405.751 409.228
Pd 403.094 404.974 411.832
Pd 400.134 409.062 410.555
Pd 401.657 407.198 411.404
Pd 398.708 413.312 411.546
Pd 398.649 410.422 412.066
Pd 399.99 417.882 409.412
Pd 397.434 415.022 413.497
Pd 411.969 399.4 411.428
Pd 407.679 399.243 415.186
Pd 405.245 399.994 414.664
Pd 408.14 402.231 411.787
Pd 411.37 400.412 415.018
Pd 406.573 402.1 413.624
Pd 405.793 403.044 410.846
Pd 407.796 404.691 410.255
Pd 408.674 404.226 413.379
Pd 405.709 404.826 412.622
Pd 405.141 405.263 409.602
Pd 404.447 407.49 408.371
Pd 406.976 406.823 411.619
Pd 404.369 407.126 411.181
Pd 402.687 408.821 409.644
Pd 402.624 411.991 409.438
Pd 404.342 410.596 411.195
Pd 401.675 410.74 411.491
Pd 401.395 413.731 411.102
Pd 401.256 416.434 410.917
Pd 403.413 415.238 412.107
Pd 400.129 415.079 413.367
Pd 400.139 418.202 412.692
Pd 404.138 421.844 406.654
Pd 403.697 417.899 411.856
Pd 402.564 417.921 409.199
Pd 410.272 398.22 415.945
Pd 411.357 399.649 417.857
Pd 410.507 401.347 412.236
Pd 412.687 403.315 411.753
Pd 413.64 401.788 415.464
Pd 411.143 402.915 414.401
Pd 410.376 404.039 411.087
Pd 409.96 405.884 409.524
Pd 411.702 405.53 412.946
Pd 409.426 406.419 412.141
Pd 407.422 406.867 409.026
Pd 406.882 409.18 407.345
Pd 408.739 408.529 410.714
Pd 406.12 408.885 409.95
Pd 404.55 410.452 408.233
Pd 404.251 413.266 407.925
Pd 406.251 411.911 409.909
Pd 404.302 413.425 410.537
Pd 402.595 414.865 408.995
Pd 406.376 414.944 406.273
Pd 406.157 414.783 408.82
Pd 404.701 416.281 410.076
Pd 404.215 416.265 407.477
Pd 401.592 421.891 407.294
Pd 402.636 420.016 405.277
Pd 402.979 420.607 409.103
Pd 412.95 401.233 413.043
Pd 416.032 400.572 416.335
Pd 415.58 402.646 412.751
Pd 414.888 404.534 410.979
Pd 416.057 403.006 415.419
Pd 413.911 404.256 413.875
Pd 412.521 405.305 410.103
Pd 412.069 407.469 408.715
Pd 413.86 406.8 412.031
Pd 411.59 407.553 411.233
Pd 409.522 408.316 408.17
Pd 409.029 410.349 406.262
Pd 410.911 409.694 409.796
Pd 408.375 410.614 408.881
Pd 406.63 411.903 407.08
Pd 410.559 412.018 405.256
Pd 410.523 411.897 408.005
Pd 408.229 413.282 408.663
Pd 408.538 413.555 405.973
Pd 408.285 416.309 404.99
Pd 409.056 415.584 407.486
Pd 406.733 417.298 408.159
Pd 406.107 417.672 405.545
Pd 405.105 420.545 404.563
Pd 406.666 420.028 406.618
Pd 405.659 423.761 408.099
Pd 418.063 401.528 413.846
Pd 418.568 401.982 416.333
Pd 418.036 403.342 411.855
Pd 417.232 405.252 409.989
Pd 418.2 404.457 414.135
Pd 416.16 405.515 413.297
Pd 414.775 406.434 408.974
Pd 414.063 408.872 407.801
Pd 416.38 407.296 411.372
Pd 414.02 408.869 410.462
Pd 411.578 409.504 406.905
Pd 415.535 410.884 406.9
Pd 415.527 410.704 409.624
Pd 412.864 410.918 408.79
Pd 413.164 411.555 406.081
Pd 412.826 413.908 404.595
Pd 413.674 413.275 407.473
Pd 411.199 414.281 406.873
Pd 410.356 414.665 404.385
Pd 410.232 417.537 403.689
Pd 410.975 416.769 406.041
Pd 408.813 418.438 406.767
Pd 407.823 419.018 404.156
Pd 407.302 421.984 403.589
Pd 408.914 421.393 405.515
Pd 406.209 419.484 402.273
Pd 419.962 401.483 412.25
Pd 420.23 402.748 414.467
Pd 419.589 404.231 410.106
Pd 418.789 407.377 409.922
Pd 420.811 404.247 412.506
Pd 418.754 405.995 412.145
Pd 416.707 408.499 408.887
Pd 420.262 410.627 409.057
Pd 420.372 409.2 411.155
Pd 417.861 410.063 410.692
Pd 417.895 410.754 407.662
Pd 417.782 412.676 405.805
Pd 419.137 413.116 409.322
Pd 416.472 412.947 408.445
Pd 415.346 413.344 405.162
Pd 415.16 415.859 404.155
Pd 415.895 415.229 407.202
Pd 413.333 415.856 406.513
Pd 412.777 416.319 403.673
Pd 415.024 418.289 403.355
Pd 413.737 418.296 405.561
Pd 411.184 419.492 405.481
Pd 409.79 420.538 403.186
Pd 409.663 422.809 402.543
Pd 411.325 422.09 404.671
Pd 408.933 423.744 404.582
Pd 421.548 402.48 410.696
Pd 422.256 404.651 409.031
Pd 421.273 406.151 410.83
Pd 423.125 410.282 408.865
Pd 425.263 406.28 412.103
Pd 422.739 408.221 411.174
Pd 424.322 412.469 409.631
Pd 422.783 412.164 407.196
Pd 423.6 413.438 411.968
Pd 421.805 412.726 409.422
Pd 419.94 412.405 407.028
Pd 419.962 414.286 405.414
Pd 421.337 414.732 407.592
Pd 418.66 415.158 407.754
Pd 417.428 415.177 405.272
Pd 418.329 419.345 404.678
Pd 418.913 417.077 406.002
Pd 416.382 417.716 405.9
Pd 416.096 420.398 404.835
Pd 416.142 423.168 403.984
Pd 417.84 422.158 405.924
Pd 413.453 420.718 404.663
Pd 412.466 418.805 402.955
Pd 412.302 421.455 402.159
Pd 413.798 423.188 403.716
Pd 411.533 424.439 403.631
Pd 408.668 398.434 417.916
Pd 404.386 402.41 415.317
Pd 404.881 401.563 417.49
Pd 403.495 404.654 414.401
Pd 404.19 404.08 417.555
Pd 402.031 406.82 414.081
Pd 402.537 405.675 416.536
Pd 400.625 408.835 413.067
Pd 401.03 408.335 416.073
Pd 397.738 412.418 413.815
Pd 399.31 410.385 414.881
Pd 397.389 418.122 413.156
Pd 396.717 414.248 415.745
Pd 409.159 400.867 417.081
Pd 409.58 400.174 419.595
Pd 407.074 401.809 416.12
Pd 408.944 403.468 416.086
Pd 409.248 402.85 418.686
Pd 406.735 403.395 418.099
Pd 406.218 404.152 415.257
Pd 407.462 406.309 414.412
Pd 407.67 405.704 416.985
Pd 404.976 406.348 416.434
Pd 404.72 406.736 414.016
Pd 405.862 409.104 412.614
Pd 406.45 408.964 415.261
Pd 403.584 408.556 415.579
Pd 403.199 408.949 412.667
Pd 403.073 412.483 412.754
Pd 404.616 410.728 414.359
Pd 402.089 410.761 414.444
Pd 400.306 412.495 413.321
Pd 402.342 416.778 414.074
Pd 402.279 414.118 414.669
Pd 399.26 413.999 415.432
Pd 399.245 417.067 415.074
Pd 400.235 420.552 408.974
Pd 402.311 419.56 413.74
Pd 401.522 419.42 411.068
Pd 413.989 401.165 417.986
Pd 411.725 401.629 419.807
Pd 411.318 402.335 417.049
Pd 412.621 404.549 416.151
Pd 412.541 403.997 418.834
Pd 410.196 404.972 417.737
Pd 409.857 405.771 415.162
Pd 410.798 407.772 413.844
Pd 411.495 407.11 416.769
Pd 408.925 408.16 416.145
Pd 408.304 408.584 413.251
Pd 407.785 410.858 411.569
Pd 409.878 410.323 415.132
Pd 407.495 411.067 414.313
Pd 405.801 412.555 412.615
Pd 406.099 415.29 411.893
Pd 407.606 413.905 414.099
Pd 404.827 414.184 414.398
Pd 404.982 416.872 413.823
Pd 404.393 419.021 407.061
Pd 406.354 417.958 412.096
Pd 403.705 418.389 415.854
Pd 405.204 418.769 409.601
Pd 402.973 423.522 408.756
Pd 404.677 422.775 410.4
Pd 401.595 422.275 410.551
Pd 416.654 402.437 417.983
Pd 414.795 402.761 419.831
Pd 414.436 403.631 417.411
Pd 415.538 405.693 415.884
Pd 416.147 405.239 418.46
Pd 413.868 406.344 417.885
Pd 413.288 406.746 414.828
Pd 413.139 409.037 412.994
Pd 415.094 408.294 416.425
Pd 412.529 409.04 415.742
Pd 410.447 409.969 412.265
Pd 410.028 412.234 410.645
Pd 412.216 411.331 414.074
Pd 409.529 412.289 413.259
Pd 407.912 413.508 411.29
Pd 410.006 415.057 409.887
Pd 409.973 414.895 412.599
Pd 407.923 416.496 413.323
Pd 407.971 416.403 410.428
Pd 407.769 419.637 409.135
Pd 408.679 418.697 411.803
Pd 406.473 420.495 411.257
Pd 405.52 421.05 408.596
Pd 406.751 422.537 405.971
Pd 407.267 422.9 410.484
Pd 404.563 425.801 409.922
Pd 420.509 403.925 416.709
Pd 419.006 403.558 418.788
Pd 417.919 404.743 416.666
Pd 418.137 406.918 414.772
Pd 419.795 406.493 417.545
Pd 417.285 407.318 417.222
Pd 415.545 407.907 413.876
Pd 415.658 409.999 412.158
Pd 417.473 409.416 415.135
Pd 414.715 410.39 414.823
Pd 413.181 411.063 411.471
Pd 414.327 412.968 410.131
Pd 414.712 412.49 413.129
Pd 412.085 413.106 412.375
Pd 411.865 413.391 409.507
Pd 412.026 415.991 408.772
Pd 412.912 415.317 411.338
Pd 410.806 417.206 411.485
Pd 409.937 417.767 409.081
Pd 410.023 420.502 408.046
Pd 411.167 419.587 410.561
Pd 409.108 421.229 410.758
Pd 407.784 422.202 408.149
Pd 408.122 424.591 406.984
Pd 409.483 423.792 409.567
Pd 407.283 425.664 409.401
Pd 422.411 404.085 414.805
Pd 422.377 405.945 416.895
Pd 420.533 405.87 414.934
Pd 420.705 407.429 413.027
Pd 422.635 407.781 415.192
Pd 420.044 408.271 415.658
Pd 418.17 408.482 412.677
Pd 419.575 412.087 411.645
Pd 419.788 410.254 413.42
Pd 417.168 411.501 413.543
Pd 416.828 412.635 411.064
Pd 417.399 415.147 409.773
Pd 418.471 414.289 412.204
Pd 415.481 414.772 411.748
Pd 414.368 415.315 409.184
Pd 414.853 417.674 408.036
Pd 415.717 417.36 410.643
Pd 413.101 417.914 410.499
Pd 412.276 418.405 407.791
Pd 412.454 420.955 407.296
Pd 413.544 420.395 409.484
Pd 411.558 422.338 409.359
Pd 410.472 422.951 407.126
Pd 410.849 425.155 405.71
Pd 412.01 425.006 408.331
Pd 409.905 426.172 408.121
Pd 423.44 404.076 411.374
Pd 422.325 402.131 413.042
Pd 422.962 406.186 412.899
Pd 424.477 410.305 411.437
Pd 424.608 408.468 413.254
Pd 422.336 409.561 413.352
Pd 422.136 411.206 411.241
Pd 422.955 414.9 409.697
Pd 424.096 414.211 414.233
Pd 421.317 414.019 411.907
Pd 420.236 415.42 409.982
Pd 420.191 417.536 407.886
Pd 421.541 417.581 410.408
Pd 418.794 417.249 410.633
Pd 417.352 417.346 408.367
Pd 417.601 419.606 407.248
Pd 419.94 419.951 406.472
Pd 416.077 419.65 409.581
Pd 415.125 420.097 407.003
Pd 415.208 422.657 406.197
Pd 416.812 422.146 408.619
Pd 414.078 422.73 408.579
Pd 412.77 423.42 406.42
Pd 414.839 425.039 407.48
Pd 411.436 427.437 409.661
Pd 414.042 426.287 409.673
Pd 407.198 400.748 418.986
Pd 404.475 403.269 419.929
Pd 404.931 402.968 422.69
Pd 403.324 405.834 419.26
Pd 403.613 405.281 421.955
Pd 401.494 407.581 418.545
Pd 401.951 407.243 421.133
Pd 399.652 409.782 417.663
Pd 400.343 409.261 420.324
Pd 398.232 411.946 416.897
Pd 398.607 411.665 419.426
Pd 396.767 416.963 415.283
Pd 396.759 413.624 418.555
Pd 409.723 401.897 421.488
Pd 407.42 402.269 423.389
Pd 406.832 402.766 420.698
Pd 408.193 405.066 419.7
Pd 408.479 404.341 422.379
Pd 406.024 405.023 421.536
Pd 405.838 405.643 418.92
Pd 406.71 408.004 417.729
Pd 407.49 407.388 420.271
Pd 404.772 407.417 420.731
Pd 404.014 408.066 418.167
Pd 405.18 410.247 417.143
Pd 405.817 409.68 419.694
Pd 402.88 409.626 419.971
Pd 402.27 410.192 417.266
Pd 403.646 412.476 415.92
Pd 403.991 411.979 418.89
Pd 401.217 411.899 419.065
Pd 400.936 412.165 416.221
Pd 401.056 415.73 416.548
Pd 402.882 413.887 417.919
Pd 399.867 413.788 418.197
Pd 398.393 415.64 417.129
Pd 398.656 419.381 411.065
Pd 401.173 418.616 415.647
Pd 398.951 419.631 414.339
Pd 412.836 403.167 422.055
Pd 410.725 403.488 423.284
Pd 410.679 403.962 420.509
Pd 411.562 406.385 419.443
Pd 412.053 405.581 422.116
Pd 409.753 406.482 421.143
Pd 409.434 407.397 418.609
Pd 410.492 409.667 417.623
Pd 411.039 408.944 420.054
Pd 408.518 409.891 419.43
Pd 407.828 410.488 416.856
Pd 409.274 412.67 415.764
Pd 409.64 412.211 418.292
Pd 406.759 412.069 418.674
Pd 406.207 412.568 416.242
Pd 406.441 415.701 415.677
Pd 408.188 414.329 417.423
Pd 405.349 414.44 417.718
Pd 403.742 415.727 416.143
Pd 404.9 419.504 413.929
Pd 406.501 418.302 415.536
Pd 402.452 417.261 417.947
Pd 403.672 420.66 411.652
Pd 402.491 422.387 413.105
Pd 405.919 424.702 411.936
Pd 402.592 423.354 416.341
Pd 417.111 403.643 420.652
Pd 415.288 404.304 422.743
Pd 414.241 405.213 420.511
Pd 415.339 407.669 419.482
Pd 416.563 406.316 421.391
Pd 413.388 407.865 421.106
Pd 413.092 408.871 418.402
Pd 414.037 410.992 417.405
Pd 414.617 410.278 419.955
Pd 412.019 411.347 419.053
Pd 411.694 411.647 416.445
Pd 411.53 413.724 414.743
Pd 413.149 413.624 418.399
Pd 410.851 414.371 417.43
Pd 409.459 415.291 415.394
Pd 409.734 418.145 414.421
Pd 410.849 416.874 416.682
Pd 408.158 417.019 417.28
Pd 407.752 419.963 413.811
Pd 408.079 422.322 412.896
Pd 408.525 419.729 416.436
Pd 406.729 421.797 415.254
Pd 405.359 422.099 412.863
Pd 406.315 427.288 411.157
Pd 407.322 424.347 414.011
Pd 404.954 426.531 413.317
Pd 421.141 405.063 419.344
Pd 419.51 404.431 421.412
Pd 418.323 405.857 419.582
Pd 419.11 409.095 418.005
Pd 420.568 407.763 420.159
Pd 418.075 408.448 420.371
Pd 416.652 410.132 417.967
Pd 416.535 411.839 416.263
Pd 418.465 411.701 418.663
Pd 415.509 412.51 418.816
Pd 414.004 413.02 415.765
Pd 413.967 414.685 413.889
Pd 415.602 414.484 417.044
Pd 413.173 415.529 416.175
Pd 411.592 416.099 413.908
Pd 412.283 418.768 413.097
Pd 413.149 417.919 415.593
Pd 411.3 419.925 415.553
Pd 410.487 420.511 413.086
Pd 410.51 423.054 411.865
Pd 411.818 422.41 414.286
Pd 409.478 421.9 415.197
Pd 408.539 424.76 411.811
Pd 408.859 427.282 410.928
Pd 409.873 424.233 414.061
Pd 407.608 426.883 413.273
Pd 424.218 408.156 417.222
Pd 423.117 406.865 419.435
Pd 421.782 408.473 417.686
Pd 421.723 410.482 415.824
Pd 423.41 410.536 417.974
Pd 420.989 411.435 418.065
Pd 419.06 411.204 416.217
Pd 419.149 413.003 414.199
Pd 421.342 413.262 416.39
Pd 418.545 413.688 416.761
Pd 416.784 414.095 414.509
Pd 417.119 416.47 412.885
Pd 418.851 415.746 414.554
Pd 415.675 416.537 415.235
Pd 414.34 416.992 412.753
Pd 414.798 419.444 411.903
Pd 417.432 419.139 411.844
Pd 413.778 420.649 414.459
Pd 412.994 421.461 411.774
Pd 413.13 423.985 410.672
Pd 414.77 423.178 413.063
Pd 412.172 424.904 413.157
Pd 411.015 425.508 410.907
Pd 412.883 427.358 412.067
Pd 415.032 425.709 412.131
Pd 410.192 426.939 413.139
Pd 424.879 406.126 414.707
Pd 426.11 410.255 417.862
Pd 424.62 409.891 415.707
Pd 424.423 411.581 413.57
Pd 426.365 412.211 415.555
Pd 423.705 412.353 416.014
Pd 421.853 412.276 413.743
Pd 422.999 416.042 412.114
Pd 425.787 414.725 416.192
Pd 421.571 415.073 414.146
Pd 420.109 416.419 412.589
Pd 421.347 419.683 408.762
Pd 422.548 418.596 412.566
Pd 421.756 421.357 412.729
Pd 419.091 419.677 409.533
Pd 419.37 422.128 408.256
Pd 420.738 421.574 410.297
Pd 418.212 421.732 410.691
Pd 415.398 421.853 410.767
Pd 417.385 424.445 407.012
Pd 418.706 424.344 409.39
Pd 417.336 423.611 412.087
Pd 416.148 424.266 409.721
Pd 416.848 426.564 408.717
Pd 417.602 426.049 411.077
Pd 415.689 427.899 411.166
Pd 405.653 402.339 425.35
Pd 403.652 404.54 424.515
Pd 404.001 404.126 426.976
Pd 402.35 406.967 423.802
Pd 402.616 406.584 426.344
Pd 400.949 408.899 422.887
Pd 401.266 408.878 425.576
Pd 399.136 411.263 421.947
Pd 400.079 410.929 424.47
Pd 395.674 415.559 420.167
Pd 398.296 413.35 423.451
Pd 395.683 415.66 417.692
Pd 398.373 415.595 419.704
Pd 409.095 404.018 425.22
Pd 406.707 404.179 426.663
Pd 406.262 404.605 424.191
Pd 407.539 407.005 422.972
Pd 407.843 406.33 425.602
Pd 405.233 406.26 425.873
Pd 404.822 406.961 423.322
Pd 406.463 409.144 422.399
Pd 406.458 408.436 425.021
Pd 403.896 408.575 425.271
Pd 403.671 409.05 422.451
Pd 404.388 411.324 421.407
Pd 405.061 410.68 424.061
Pd 402.556 410.875 424.375
Pd 401.579 411.24 421.8
Pd 403.026 413.548 420.548
Pd 403.583 412.932 423.19
Pd 400.98 413.158 423.628
Pd 400.166 413.6 420.869
Pd 401.023 415.665 419.459
Pd 401.831 415.553 422.143
Pd 399.06 415.39 422.347
Pd 397.514 413.445 421.068
Pd 400.1 421.076 412.618
Pd 399.753 417.531 418.034
Pd 397.912 418.822 416.686
Pd 413.477 404.531 424.364
Pd 411.53 404.878 425.799
Pd 409.909 406.188 423.912
Pd 411.216 408.447 423.051
Pd 412.704 407.117 424.975
Pd 409.057 408.584 424.364
Pd 409.107 409.428 422.036
Pd 410.004 411.586 420.884
Pd 410.385 411.118 423.738
Pd 407.618 410.712 423.927
Pd 407.256 411.731 421.375
Pd 408.44 413.864 419.963
Pd 408.717 413.343 422.735
Pd 406.071 413.054 423.21
Pd 405.79 413.699 420.348
Pd 406.999 415.903 419.556
Pd 407.183 415.259 422.091
Pd 404.583 415.178 422.049
Pd 403.865 415.808 419.469
Pd 405.415 420.216 417.02
Pd 405.35 417.287 417.831
Pd 402.729 417.812 420.906
Pd 403.904 421.444 415.166
Pd 403.155 424.528 411.503
Pd 404.341 422.138 418.487
Pd 404.218 424.29 414.397
Pd 417.834 404.834 423.228
Pd 416.001 405.381 425.084
Pd 414.389 406.659 423.104
Pd 415.615 408.965 422.034
Pd 417.118 407.525 423.813
Pd 413.697 409.252 423.733
Pd 412.43 410.374 421.798
Pd 413.663 412.871 420.772
Pd 415.045 411.526 422.549
Pd 411.591 413.024 422.394
Pd 411.117 414.08 420.024
Pd 412.376 416.147 418.732
Pd 413.122 415.445 421.115
Pd 409.925 415.575 421.779
Pd 409.707 415.943 419.123
Pd 409.7 418.575 418.52
Pd 411.484 417.495 420.813
Pd 408.438 417.684 420.765
Pd 407.089 419.002 418.835
Pd 407.384 421.849 418.045
Pd 409.007 420.711 420.041
Pd 405.75 420.866 420.093
Pd 405.529 423.528 416.588
Pd 406.241 426.239 415.704
Pd 406.129 424.333 418.961
Pd 404.091 425.742 417.124
Pd 421.623 406.354 422.105
Pd 420.07 405.713 424.141
Pd 419.118 406.897 422.199
Pd 419.612 410.49 420.483
Pd 421.005 408.992 422.505
Pd 418.172 409.574 422.732
Pd 417.045 411.201 420.781
Pd 417.444 414.311 418.906
Pd 419.143 413.112 421.233
Pd 416.428 413.735 421.421
Pd 414.904 415.153 419.418
Pd 414.745 417.151 417.664
Pd 417.077 416.888 419.377
Pd 414.125 417.748 419.991
Pd 412.291 418.916 418.039
Pd 412.778 421.647 416.647
Pd 414.563 419.676 416.765
Pd 411.728 420.099 420.182
Pd 410.396 420.845 417.808
Pd 410.794 423.692 416.65
Pd 412.135 422.629 419.052
Pd 409.577 423.18 419.052
Pd 408.13 424.05 416.638
Pd 411.232 425.908 415.374
Pd 410.067 425.788 417.735
Pd 407.311 426.59 417.946
Pd 425.045 408.906 419.819
Pd 423.42 408.308 421.868
Pd 422.288 409.871 420.028
Pd 422.921 413.047 418.51
Pd 424.237 411.371 420.278
Pd 421.55 412.388 420.467
Pd 420.28 413.965 418.795
Pd 420.456 415.666 416.659
Pd 422.371 415.687 418.905
Pd 419.634 416.536 418.947
Pd 417.815 416.067 416.848
Pd 420.341 419.36 411.831
Pd 419.551 418.45 416.915
Pd 418.741 418.141 414.232
Pd 415.885 418.876 414.406
Pd 416.309 421.301 413.398
Pd 417.978 420.318 415.511
Pd 415.426 422.273 415.647
Pd 413.486 424.171 415.401
Pd 416.077 424.945 414.611
Pd 417.218 423.72 417.351
Pd 412.748 424.923 417.994
Pd 414.019 426.577 414.547
Pd 410.736 428.137 416.426
Pd 411.849 429.316 418.154
Pd 408.798 426.376 415.585
Pd 427.489 412.47 422.676
Pd 426.801 411.294 420.222
Pd 425.599 412.768 418.04
Pd 426.249 417.876 419.133
Pd 423.798 417.997 419.028
Pd 425.093 415.581 418.641
Pd 423.299 415.048 416.66
Pd 423.689 416.787 414.681
Pd 425.094 417.527 416.61
Pd 422.397 417.704 416.929
Pd 421.202 417.974 414.696
Pd 420.589 423.107 414.582
Pd 423.56 419.198 415.203
Pd 420.778 420.308 415.054
Pd 418.928 421.42 413.09
Pd 417.098 427.131 413.356
Pd 419.797 423.743 411.76
Pd 422.392 420.112 417.394
Pd 417.802 423.032 414.942
Pd 414.768 428.811 413.452
Pd 417.537 426.127 416.386
Pd 415.12 425.722 417.037
Pd 412.009 428.283 414.187
Pd 415.744 427.937 415.801
Pd 419.71 424.427 416.727
Pd 413.948 429.654 415.796
Pd 408.051 405.431 430.377
Pd 404.379 406.239 428.227
Pd 405.784 404.123 429.057
Pd 402.75 408.597 427.872
Pd 404.399 408.89 430.068
Pd 401.323 411.157 426.961
Pd 402.796 411.121 429.297
Pd 399.885 413.331 426.047
Pd 401.299 413.52 428.302
Pd 396.713 415.428 422.751
Pd 398.568 415.705 425.425
Pd 396.987 417.527 418.638
Pd 397.257 417.51 421.232
Pd 409.604 405.126 427.545
Pd 410.266 404.759 430.005
Pd 406.992 406.187 428.292
Pd 408.135 408.511 427.114
Pd 409.469 407.23 429.282
Pd 407.107 408.598 429.503
Pd 405.367 408.699 427.576
Pd 406.65 410.871 426.667
Pd 408.138 410.7 428.581
Pd 405.466 411.023 429.089
Pd 403.903 410.867 426.814
Pd 405.555 413.086 425.77
Pd 406.862 413.033 428.171
Pd 404.066 413.22 428.077
Pd 402.634 413.084 425.725
Pd 403.821 415.119 424.593
Pd 405.659 415.453 427.131
Pd 402.747 415.32 427.179
Pd 400.852 415.341 424.617
Pd 403.071 417.387 423.29
Pd 405.852 417.55 423.225
Pd 400.351 417.42 423.273
Pd 399.843 417.487 420.866
Pd 401.276 421.446 415.209
Pd 401.209 419.23 419.35
Pd 400.064 420.451 417.215
Pd 413.902 405.812 426.729
Pd 411.776 406.403 428.266
Pd 410.243 407.471 426.266
Pd 411.707 409.728 425.469
Pd 413.089 408.429 427.133
Pd 410.726 409.703 428.216
Pd 409.296 410.742 426.168
Pd 410.605 413.285 425.098
Pd 411.677 411.906 426.787
Pd 409.393 413.049 427.634
Pd 408.031 412.974 425.012
Pd 409.282 415.448 424.705
Pd 411.166 415.203 426.617
Pd 408.395 415.393 426.93
Pd 406.449 415.347 424.503
Pd 408.439 417.323 423.333
Pd 409.997 417.676 426.371
Pd 407.262 417.912 425.891
Pd 405.415 417.528 420.861
Pd 404.051 419.173 419.006
Pd 406.34 419.83 424.38
Pd 404.516 419.611 422.192
Pd 402.635 420.269 417.216
Pd 403.306 424.514 419.09
Pd 402.961 421.068 420.705
Pd 401.901 422.235 418.713
Pd 418.32 405.952 426.174
Pd 416.173 406.955 427.581
Pd 415.178 408.076 425.396
Pd 416.325 410.062 424.453
Pd 417.75 408.711 426.45
Pd 414.104 410.957 426.17
Pd 412.955 411.937 424.238
Pd 414.394 414.302 423.317
Pd 415.495 412.939 425.143
Pd 413.235 414.169 425.97
Pd 411.951 415.165 423.767
Pd 413.416 417.334 422.957
Pd 414.953 416.257 425.053
Pd 412.711 417.122 425.87
Pd 410.978 417.558 423.692
Pd 409.709 419.284 422.032
Pd 411.886 419.499 425.604
Pd 409.267 419.652 424.762
Pd 407.044 419.529 422.083
Pd 407.622 422.774 420.651
Pd 408.377 421.931 423.188
Pd 405.738 421.844 422.726
Pd 404.308 423.433 421.302
Pd 405.097 426.237 419.977
Pd 406.639 425.131 421.614
Pd 403.387 425.695 421.749
Pd 421.97 407.662 424.537
Pd 420.633 406.804 426.696
Pd 419.536 408.217 424.612
Pd 420.305 411.544 422.933
Pd 421.552 410.26 425.038
Pd 418.97 410.898 425.233
Pd 417.503 412.229 423.404
Pd 418.363 415.556 421.33
Pd 419.478 413.928 423.562
Pd 416.962 414.941 423.764
Pd 415.677 416.231 421.666
Pd 414.927 419.305 422.264
Pd 416.669 418.161 423.981
Pd 414.234 419.087 424.909
Pd 412.205 419.699 422.857
Pd 413.323 421.592 421.244
Pd 413.607 421.564 424.328
Pd 410.956 421.809 423.87
Pd 410.622 422.163 421.351
Pd 411.201 424.747 420.501
Pd 412.393 423.819 422.881
Pd 409.368 424.469 422.282
Pd 408.659 425.376 419.919
Pd 409.413 428.204 418.864
Pd 410.396 426.994 421.6
Pd 407.817 427.369 420.905
Pd 424.626 413.151 426.928
Pd 424.122 409.207 424.725
Pd 422.856 410.851 422.677
Pd 423.843 414.28 420.94
Pd 426.314 411.365 424.738
Pd 422.443 413.406 423.14
Pd 420.861 414.806 421.311
Pd 420.149 417.311 421.268
Pd 421.624 415.861 423.699
Pd 419.085 416.614 423.538
Pd 417.506 418.275 421.518
Pd 416.171 419.31 419.639
Pd 418.442 419.707 423.678
Pd 416.369 420.879 424.205
Pd 414.013 420.783 418.916
Pd 416.579 421.154 417.699
Pd 417.266 420.866 421.502
Pd 415.148 422.756 422.848
Pd 414.696 423.067 417.926
Pd 416.154 424.932 419.527
Pd 415.842 422.268 420.097
Pd 413.588 424.106 420.486
Pd 411.843 427.125 419.311
Pd 413.23 427.229 416.734
Pd 414.197 426.634 419.209
Pd 413.334 428.61 420.836
Pd 426.217 413.912 420.426
Pd 422.769 408.618 426.746
Pd 425.414 410.138 422.233
Pd 425.307 416.5 421.012
Pd 425.763 414.083 424.911
Pd 421.095 418.418 423.645
Pd 422.75 416.969 421.148
Pd 423.869 420.431 419.763
Pd 424.976 418.936 421.446
Pd 421.209 421.154 423.386
Pd 421.228 418.476 419.177
Pd 422.821 421.656 414.909
Pd 423.654 420.692 423.159
Pd 419.631 419.629 421.276
Pd 419.769 425.084 421.352
Pd 418.684 425.191 413.934
Pd 422.124 419.444 421.32
Pd 416.876 418.48 417.172
Pd 418.445 422.509 419.265
Pd 422.52 422.234 421.199
Pd 422.029 422.905 417.16
Pd 424.964 419.91 417.502
Pd 414.602 429.265 418.252
Pd 418.56 425.183 419.013
Pd 416.749 427.248 418.451
Pd 410.628 429.411 420.774
Pd 407.986 407.892 431.755
Pd 405.516 406.358 430.396
Pd 408.067 410.062 433.243
Pd 404.27 410.994 431.649
Pd 405.587 408.956 432.203
Pd 402.981 413.39 430.491
Pd 403.434 415.919 431.687
Pd 400.278 415.923 427.431
Pd 401.777 415.662 429.559
Pd 397.841 417.606 423.532
Pd 399.489 418.175 425.812
Pd 398.773 419.456 419.175
Pd 399.014 419.56 422.024
Pd 412.845 405.938 430.475
Pd 410.497 406.839 431.585
Pd 409.502 409.527 430.582
Pd 409.728 411.848 432.564
Pd 410.498 409.475 432.886
Pd 405.87 411.428 433.712
Pd 407.024 410.86 431.106
Pd 408.523 412.851 430.223
Pd 407.344 412.949 432.624
Pd 404.642 413.461 432.983
Pd 405.63 413.074 430.559
Pd 407.263 415.219 429.719
Pd 406.206 415.281 431.944
Pd 402.582 418.013 430.522
Pd 404.494 415.302 429.575
Pd 404.719 417.499 425.819
Pd 403.719 417.466 428.115
Pd 401.362 418.513 428.377
Pd 402.153 417.706 425.949
Pd 403.632 419.526 424.538
Pd 403.04 420.197 426.938
Pd 400.912 420.097 424.997
Pd 401.649 419.664 422.493
Pd 400.02 421.44 420.521
Pd 401.987 422.28 425.805
Pd 400.452 421.891 423.122
Pd 414.397 407.205 428.943
Pd 412.524 407.945 432.174
Pd 411.971 408.624 429.838
Pd 413.094 410.723 428.897
Pd 414.233 409.315 430.491
Pd 412.337 410.531 431.666
Pd 410.949 412.025 430.019
Pd 412.43 414.053 428.563
Pd 411.362 413.862 431.922
Pd 408.941 415.16 432.039
Pd 410.026 414.753 429.4
Pd 408.902 417.115 428.774
Pd 407.627 417.508 431.022
Pd 405.139 417.687 430.917
Pd 406.263 417.67 428.526
Pd 408.492 419.733 427.603
Pd 406.852 419.984 429.728
Pd 404.201 419.966 429.463
Pd 405.85 420.022 426.988
Pd 404.851 422.044 425.452
Pd 407.08 422.26 428.518
Pd 404.339 422.15 427.984
Pd 403.072 421.915 423.403
Pd 401.732 423.43 421.201
Pd 403.431 424.639 425.82
Pd 401.811 424.526 423.734
Pd 421.741 416.54 428.086
Pd 418.7 407.34 428.468
Pd 415.532 409.616 427.983
Pd 416.996 411.406 426.942
Pd 416.683 408.441 429.963
Pd 413.431 412.766 430.823
Pd 414.587 412.728 427.792
Pd 414.084 415.866 427.734
Pd 412.743 415.599 430.49
Pd 410.623 416.865 431.08
Pd 411.738 416.628 428.44
Pd 413.449 418.794 427.758
Pd 412.381 418.538 430.431
Pd 409.288 419.267 430.645
Pd 410.856 419.129 428.328
Pd 410.35 421.501 426.668
Pd 411.939 421.174 429.599
Pd 409.468 421.375 429.142
Pd 407.676 421.59 425.812
Pd 407.123 423.961 424.179
Pd 408.803 423.507 427.472
Pd 406.152 423.816 426.743
Pd 404.533 424.33 423.633
Pd 405.755 426.958 422.866
Pd 405.534 425.923 425.419
Pd 403.244 426.612 424.036
Pd 418.198 410.22 428.761
Pd 415.577 411.31 429.806
Pd 420.22 409.54 427.186
Pd 418.256 413.614 425.715
Pd 417.2 413.25 428.903
Pd 415.091 414.342 429.657
Pd 416.102 414.76 426.914
Pd 417.748 416.462 425.905
Pd 416.686 416.47 428.887
Pd 414.611 417.424 429.618
Pd 415.57 417.855 426.979
Pd 415.388 420.336 426.781
Pd 416.767 419.182 428.945
Pd 414.34 420.454 429.516
Pd 412.941 421.193 427.049
Pd 412.143 423.393 425.686
Pd 414.264 422.936 428.796
Pd 411.497 423.348 428.176
Pd 409.634 423.689 425.058
Pd 410.877 425.907 424.198
Pd 410.508 425.581 426.792
Pd 408.093 425.751 425.902
Pd 408.508 426.506 423.312
Pd 409.181 429.097 422.756
Pd 409.808 427.678 425.433
Pd 407.064 428.1 424.833
Pd 422.523 411.558 427.291
Pd 419.546 412.153 427.7
Pd 421.011 413.045 425.323
Pd 424.364 415.545 423.106
Pd 423.848 412.056 424.927
Pd 418.836 414.98 427.872
Pd 420.237 415.534 425.606
Pd 419.792 418.036 425.711
Pd 421.246 414.102 427.562
Pd 419.09 417.629 428.082
Pd 417.732 419.366 426.358
Pd 417.561 422.227 426.252
Pd 419.062 420.416 428.504
Pd 416.708 421.701 428.635
Pd 414.837 422.995 426.228
Pd 416.452 423.957 424.716
Pd 416.483 424.168 427.961
Pd 413.662 424.896 427.415
Pd 413.918 424.865 424.428
Pd 415.43 425.32 422.101
Pd 415.393 426.207 426.038
Pd 412.544 426.717 425.499
Pd 412.803 426.352 421.956
Pd 415.752 427.763 421.041
Pd 414.618 427.379 423.606
Pd 411.8 428.4 423.299
Pd 424.992 410.507 426.742
Pd 423.982 415.496 428.017
Pd 425.139 412.764 422.709
Pd 424.814 416.482 425.622
Pd 422.295 417.21 425.85
Pd 423.761 418.282 423.498
Pd 423.167 414.63 425.458
Pd 422.562 422.527 425.257
Pd 422.438 420.01 425.379
Pd 421.018 419.089 427.596
Pd 419.894 420.759 425.646
Pd 421.284 423.642 422.974
Pd 420.984 422.112 427.491
Pd 418.801 423.227 428.176
Pd 418.819 422.269 423.805
Pd 420.899 421.254 419.295
Pd 419.872 422.289 421.423
Pd 420.314 423.709 425.732
Pd 417.384 423.768 421.814
Pd 418.596 419.555 418.962
Pd 419.54 422.027 416.936
Pd 419.168 425.173 423.922
Pd 417.063 426.494 423.841
Pd 417.749 426.506 421.274
Pd 420.694 423.868 419.287
Pd 418.02 425.191 426.328
