864
CSIRO Nanostructure Databank - Palladium Nanoparticle Data Set (002354.xyz)
Pd 405.023 398.197 412.93
Pd 409.135 397.848 410.102
Pd 409.231 397.545 413.277
Pd 404.057 400.229 411.374
Pd 406.784 399.077 409.944
Pd 402.582 401.834 410.071
Pd 406.144 401.126 412.309
Pd 402.731 399.301 413.828
Pd 399.929 402.748 410.436
Pd 398.758 404.451 408.886
Pd 401.981 403.696 411.865
Pd 398.496 404.566 411.843
Pd 397.037 406.777 412.695
Pd 395.794 407.437 408.774
Pd 397.258 406.209 410.131
Pd 399.91 403.463 415.941
Pd 395.33 408.126 411.345
Pd 395.44 410.779 411.882
Pd 397.752 409.29 412.978
Pd 396.764 407.081 415.745
Pd 395.689 413.479 412.501
Pd 396.655 407.901 418.401
Pd 395.628 408.649 414.023
Pd 395.192 409.38 416.673
Pd 407.062 397.389 412.226
Pd 408.551 399.732 408.249
Pd 411.314 399.077 408.77
Pd 408.328 399.561 411.772
Pd 405.401 401.122 409.382
Pd 404.189 402.715 407.966
Pd 407.716 401.693 410.372
Pd 404.924 402.875 410.844
Pd 401.293 403.608 408.105
Pd 400.149 405.474 406.871
Pd 403.3 404.611 409.778
Pd 400.961 405.507 410.291
Pd 397.629 406.22 407.408
Pd 397.607 408.901 407.667
Pd 399.571 407.062 408.791
Pd 397.641 408.793 410.476
Pd 395.674 410.056 409.392
Pd 396.004 412.827 410.015
Pd 397.761 411.174 411.068
Pd 397.639 411.785 413.778
Pd 395.019 411.409 414.845
Pd 396.553 415.983 412.797
Pd 398.367 414.295 413.944
Pd 396.036 413.98 414.997
Pd 410.505 401.131 407.308
Pd 413.112 404.796 402.431
Pd 412.852 401.107 408.395
Pd 410.124 400.656 410.067
Pd 407.169 401.61 407.378
Pd 406.371 403.777 406.076
Pd 409.286 403.211 408.428
Pd 406.502 403.881 409.035
Pd 403.09 404.28 406.25
Pd 402.068 406.615 405.438
Pd 405.054 405.39 407.811
Pd 402.135 406.175 408.121
Pd 399.024 407.876 405.656
Pd 399.215 410.216 406.321
Pd 401.09 408.744 407.399
Pd 399.655 409.975 409.229
Pd 397.576 411.699 408.318
Pd 397.691 414.454 408.391
Pd 399.777 412.655 409.84
Pd 398.128 414.024 411.36
Pd 396.128 415.331 410.422
Pd 396.164 418.008 411.24
Pd 398.467 416.83 411.385
Pd 397.042 418.564 413.764
Pd 416.18 405.155 403.769
Pd 410.84 403.982 404.085
Pd 413.483 404.238 404.822
Pd 411.254 404.019 407.019
Pd 409.037 403.095 405.808
Pd 407.9 405.031 404.442
Pd 409.975 406.138 405.542
Pd 408.288 405.122 407.21
Pd 404.976 405.681 405.024
Pd 403.763 408.05 404.157
Pd 406.762 406.919 406.309
Pd 403.97 407.563 406.9
Pd 401.256 409.084 404.885
Pd 401.129 411.821 405.108
Pd 403.28 409.995 406.056
Pd 401.39 411.355 407.59
Pd 399.411 412.848 406.956
Pd 399.34 415.701 406.999
Pd 401.45 414.038 408.006
Pd 399.967 415.712 409.691
Pd 397.707 416.962 409.066
Pd 400.649 421.009 408.677
Pd 399.971 418.582 409.793
Pd 398.115 419.591 411.347
Pd 412.545 402.086 405.984
Pd 416.125 404.475 406.113
Pd 414.65 406.666 405.07
Pd 412.226 406.537 403.927
Pd 408.317 408.562 402.195
Pd 409.466 406.239 403.041
Pd 410.68 408.92 403.211
Pd 408.558 408.314 404.882
Pd 406.297 407.443 403.652
Pd 405.456 409.609 402.394
Pd 407.491 410.61 403.791
Pd 405.781 409.157 405.437
Pd 402.925 410.47 403.5
Pd 402.998 413.005 403.719
Pd 404.957 411.503 404.546
Pd 403.239 412.915 406.171
Pd 401.086 414.369 405.287
Pd 401.206 417.17 405.416
Pd 403.219 415.445 406.534
Pd 401.654 416.843 407.974
Pd 399.371 418.261 407.319
Pd 402.233 422.969 412.773
Pd 402.036 419.373 407.227
Pd 403.009 421.334 408.912
Pd 411.617 406.771 401.48
Pd 412.822 409.222 401.331
Pd 415.175 409.685 402.354
Pd 410.377 409.13 400.647
Pd 411.558 411.608 400.628
Pd 414.104 411.806 401.487
Pd 414.924 411.537 404.143
Pd 409.586 411.077 402.266
Pd 407.177 410.924 401.144
Pd 406.551 413.34 400.506
Pd 408.975 413.442 401.143
Pd 406.595 412.921 403.046
Pd 404.303 411.813 401.793
Pd 404.661 414.331 402.081
Pd 407.496 415.374 402.109
Pd 405.158 414.515 404.676
Pd 403.201 415.857 403.963
Pd 405.761 422.249 409.385
Pd 405.857 417.106 403.745
Pd 403.736 417.86 405.687
Pd 403.154 423.664 408.415
Pd 404.779 419.867 407.471
Pd 403.998 423.529 410.742
Pd 405.101 422.481 406.883
Pd 406.926 396.649 414.543
Pd 407.136 399.122 414.241
Pd 409.308 397.382 415.878
Pd 404.728 398.247 418.212
Pd 404.884 397.733 415.851
Pd 403.501 401.866 413.192
Pd 404.971 400.266 414.918
Pd 401.168 401.622 417.312
Pd 401.259 400.98 411.985
Pd 400.424 405.39 413.379
Pd 402.313 403.902 414.849
Pd 399.866 402.661 413.431
Pd 398 404.868 414.435
Pd 399.037 407.619 414.687
Pd 400.754 406.034 416.051
Pd 401.197 407.383 421.368
Pd 398.162 406.16 419.718
Pd 397.461 409.978 415.603
Pd 398.935 408.345 417.349
Pd 396.834 408.887 420.869
Pd 398.318 405.469 417.118
Pd 395.455 412.128 417.271
Pd 395.389 410.211 419.156
Pd 397.708 410.519 418.09
Pd 411.303 398.79 411.672
Pd 410.917 400.885 412.729
Pd 413.586 398.348 412.679
Pd 409.553 399.668 414.761
Pd 408.472 401.828 413.474
Pd 407.308 403.585 412.006
Pd 410.697 402.799 414.394
Pd 405.696 402.623 414.48
Pd 404.339 404.533 412.884
Pd 402.742 406.478 411.85
Pd 406.779 405.196 413.99
Pd 402.876 406.334 414.491
Pd 399.357 407.339 411.676
Pd 399.917 409.96 411.83
Pd 401.535 408.233 413.387
Pd 401.383 408.711 415.837
Pd 399.792 410.309 414.58
Pd 400.241 413.003 415.284
Pd 402.11 411.079 415.776
Pd 399.976 410.902 417.122
Pd 397.848 412.452 416.329
Pd 396.855 416.485 415.488
Pd 398.639 414.923 416.511
Pd 396.209 414.926 417.792
Pd 413.448 399.057 409.86
Pd 411.796 403.258 409.564
Pd 415.072 401.085 409.274
Pd 412.988 401.179 411.132
Pd 410.088 402.945 411.501
Pd 408.682 404.905 410.39
Pd 411.391 405.33 411.298
Pd 409.575 404.811 413.164
Pd 405.737 405.706 411.048
Pd 404.045 407.319 409.692
Pd 407.891 406.592 412.119
Pd 405.047 407.329 413.02
Pd 401.661 408.234 410.054
Pd 401.725 411.03 410.222
Pd 403.664 409.103 411.575
Pd 402.042 410.887 413.058
Pd 399.944 412.392 412.544
Pd 400.392 415.136 412.377
Pd 402.132 413.513 413.409
Pd 400.944 415.724 415.347
Pd 399.11 417.056 414.171
Pd 399.299 419.823 414.076
Pd 401.415 418.344 415.029
Pd 397.557 418.882 416.12
Pd 416.767 407.415 403.005
Pd 412.461 406.148 406.577
Pd 414.092 403.541 407.693
Pd 413.149 405.76 409.496
Pd 410.528 405.853 408.641
Pd 409.117 407.917 407.338
Pd 411.81 408.177 408.438
Pd 409.811 407.583 410.099
Pd 407.414 406.672 409.026
Pd 406.088 408.784 408.088
Pd 408.274 409.74 409.013
Pd 406.366 408.681 410.901
Pd 403.474 409.694 408.533
Pd 403.629 412.477 408.846
Pd 405.516 410.902 410.005
Pd 403.647 412.216 411.534
Pd 401.954 413.714 410.769
Pd 402.087 416.639 410.676
Pd 404.2 414.782 411.742
Pd 402.426 416.358 413.213
Pd 400.604 418.316 412.366
Pd 400.345 420.93 411.71
Pd 403.151 418.912 412.73
Pd 401.928 420.886 414.337
Pd 417.318 406.669 405.576
Pd 413.415 409.144 404.055
Pd 417.72 409.853 402.786
Pd 413.849 408.432 406.647
Pd 411.215 408.523 405.969
Pd 410.008 410.748 404.829
Pd 412.576 410.861 405.737
Pd 410.406 410.206 407.561
Pd 407.829 410.379 406.585
Pd 406.921 412.792 405.607
Pd 409.468 412.877 406.537
Pd 407.573 412.31 408.459
Pd 405.492 411.228 407.283
Pd 405.502 413.862 407.605
Pd 408.001 414.844 407.539
Pd 405.897 413.419 410.122
Pd 403.669 414.993 409.177
Pd 404.098 417.559 408.561
Pd 406.275 415.886 409.234
Pd 404.556 417.197 411.188
Pd 402.377 419.382 410.034
Pd 404.552 420.624 405.045
Pd 405.198 419.907 410.129
Pd 403.39 421.244 411.601
Pd 414.249 406.94 402.396
Pd 417.604 411.526 404.677
Pd 418.443 414.244 404.316
Pd 416.885 412.206 402.347
Pd 412.379 411.293 403.037
Pd 411.278 413.768 402.2
Pd 413.671 413.724 402.862
Pd 411.707 413.157 404.62
Pd 409.084 413.244 403.833
Pd 409.939 415.64 403.195
Pd 412.242 415.827 403.715
Pd 410.041 415.199 405.745
Pd 407.712 415.049 404.748
Pd 408.224 417.649 403.9
Pd 410.805 417.622 404.961
Pd 408.462 417.204 406.457
Pd 405.814 416.438 406.341
Pd 406.48 419.042 405.412
Pd 408.934 419.727 405.985
Pd 406.762 418.581 408.208
Pd 403.283 423.426 415.405
Pd 402.691 421.903 406.472
Pd 407.311 421.012 407.593
Pd 406.032 421.762 411.855
Pd 402.743 399.413 416.304
Pd 407.181 398.409 416.796
Pd 411.603 398.286 417.267
Pd 407.621 401.529 418.784
Pd 409.406 397.357 418.491
Pd 403.574 402.035 416.156
Pd 405.419 400.563 417.331
Pd 407.244 399.095 419.171
Pd 402.754 400.223 418.675
Pd 402.1 404.24 417.482
Pd 403.631 402.578 418.787
Pd 401.323 402.256 419.825
Pd 399.743 403.81 418.606
Pd 400.663 406.628 418.829
Pd 402.287 404.763 420.142
Pd 398.609 407.136 422.152
Pd 400.313 405.615 423.626
Pd 399.138 408.662 419.926
Pd 399.948 409.705 422.218
Pd 397.636 409.798 423.088
Pd 395.609 412.735 419.804
Pd 396.587 413.204 422.173
Pd 398.561 412.3 423.485
Pd 399.363 413.288 425.965
Pd 411.868 398.055 414.611
Pd 413.359 400.793 413.68
Pd 415.983 398.979 413.895
Pd 411.608 400.483 415.786
Pd 407.685 401.214 416.001
Pd 408.168 403.796 415.713
Pd 413.27 402.676 415.613
Pd 405.956 403.233 417.361
Pd 404.581 404.792 415.799
Pd 405.274 407.422 415.664
Pd 406.823 405.867 417.104
Pd 404.394 405.245 418.611
Pd 403.157 406.844 416.966
Pd 403.956 409.598 416.973
Pd 405.643 407.849 418.365
Pd 403.373 407.37 420.09
Pd 401.468 409.195 418.538
Pd 400.346 413.438 417.928
Pd 402.78 411.68 418.166
Pd 400.531 411.476 419.67
Pd 397.915 412.993 418.702
Pd 397.529 417.146 418.313
Pd 399.315 415.581 419.302
Pd 396.947 415.023 420.167
Pd 415.41 399.845 411.626
Pd 414.314 403.566 410.573
Pd 416.745 402.133 410.668
Pd 415.278 401.913 412.896
Pd 412.526 403.278 412.601
Pd 410.613 407.166 412.669
Pd 413.706 405.663 412.176
Pd 412.015 405.314 414.21
Pd 408.973 406.226 415.103
Pd 407.156 408.452 413.754
Pd 409.849 409.106 414.525
Pd 407.93 408.232 416.327
Pd 403.741 409.363 414.376
Pd 404.401 411.959 414.501
Pd 406.145 410.101 415.323
Pd 405.071 412.036 417.052
Pd 402.663 413.776 416.245
Pd 403.421 416.485 415.755
Pd 405.524 414.746 416.941
Pd 401.88 415.859 417.857
Pd 399.605 417.662 417.074
Pd 400.189 420.266 416.693
Pd 402.349 418.673 417.397
Pd 398.819 419.536 418.805
Pd 416.314 403.851 408.882
Pd 414.646 408.311 409.268
Pd 417.615 406.075 408.122
Pd 415.683 406.026 410.268
Pd 412.74 407.85 410.944
Pd 411.084 410.029 410.09
Pd 413.946 410.104 410.952
Pd 411.752 409.67 412.902
Pd 408.892 409.16 411.94
Pd 407.853 411.65 411.203
Pd 410.267 411.782 411.929
Pd 408.168 411.021 413.698
Pd 405.555 410.354 412.517
Pd 406.051 412.814 412.647
Pd 408.706 413.72 413.021
Pd 406.905 412.707 415.225
Pd 404.465 414.509 414.411
Pd 405.109 416.75 413.683
Pd 407.163 415.222 414.749
Pd 406.174 417.363 416.102
Pd 403.878 418.985 415.095
Pd 404.569 421.308 414.154
Pd 406.502 420 415.31
Pd 402.754 421.064 416.477
Pd 415.09 406.182 407.501
Pd 415.352 411.091 406.546
Pd 416.349 408.597 407.405
Pd 415.832 410.677 409.189
Pd 413.181 410.563 408.329
Pd 411.891 412.782 407.498
Pd 414.497 413.239 408.178
Pd 412.362 412.636 410.242
Pd 410.003 412.298 409.293
Pd 410.826 414.656 408.547
Pd 413.354 415.06 409.18
Pd 410.607 414.124 411.326
Pd 408.469 414.181 410.208
Pd 408.968 416.597 409.254
Pd 411.288 416.733 410.141
Pd 408.961 416.228 412.033
Pd 406.755 415.376 411.751
Pd 407.321 417.865 410.882
Pd 409.924 418.253 411.204
Pd 407.711 417.834 413.753
Pd 405.682 419.391 412.832
Pd 404.89 423.593 413.251
Pd 408.331 420.117 412.815
Pd 406.887 422.426 414.39
Pd 415.801 409.191 404.88
Pd 415.997 414.095 403.793
Pd 418.075 408.884 405.271
Pd 416.69 413.477 406.327
Pd 414.129 413.662 405.555
Pd 414.672 416.113 404.637
Pd 417.385 415.908 405.624
Pd 415.155 415.821 407.232
Pd 412.752 415.495 406.58
Pd 413.442 418.013 405.88
Pd 416.166 417.904 406.94
Pd 413.665 417.4 408.34
Pd 411.079 417.317 407.617
Pd 411.628 419.759 406.855
Pd 414.159 420.156 408.044
Pd 412.062 419.446 409.589
Pd 409.454 419.074 408.441
Pd 409.732 421.638 407.942
Pd 412.424 421.911 408.69
Pd 410.007 420.83 410.442
Pd 407.61 420.398 410.25
Pd 408.223 422.815 409.942
Pd 410.597 423.304 410.064
Pd 401.436 422.688 410.374
Pd 401.473 401.112 414.747
Pd 409.486 399.748 417.559
Pd 413.737 398.672 418.617
Pd 407.029 401.296 421.345
Pd 404.966 400.643 419.889
Pd 405.963 403.471 420.203
Pd 410.746 404.32 419.04
Pd 409.409 408.264 424.687
Pd 403.825 402.877 421.58
Pd 404.91 405.589 421.458
Pd 403.999 403.877 423.948
Pd 406.155 403.746 422.841
Pd 399.897 404.963 420.992
Pd 402.773 405.806 422.692
Pd 404.456 408.925 424.713
Pd 401.66 403.452 422.64
Pd 402.949 406.656 425.124
Pd 399.348 408.011 424.407
Pd 402.763 410.711 423.451
Pd 401.544 408.453 423.603
Pd 395.715 411.011 421.892
Pd 397.898 415.581 422.579
Pd 400.281 410.599 424.586
Pd 398.013 411.312 420.736
Pd 413.934 398.86 415.64
Pd 415.306 401 415.456
Pd 417.971 400.312 415.585
Pd 414.247 400.933 417.838
Pd 409.896 402.152 417.16
Pd 410.843 404.684 416.337
Pd 415.085 403.519 417.059
Pd 408.284 403.928 418.474
Pd 408.338 403.899 421.234
Pd 407.044 406.139 419.693
Pd 409.388 406.413 417.873
Pd 406.175 408.009 421.08
Pd 403.96 408.208 422.337
Pd 404.514 410.002 419.605
Pd 408.406 408.4 419.443
Pd 405.354 410.646 422.341
Pd 402.13 409.72 420.885
Pd 401.49 414.035 420.154
Pd 403.44 412.146 421.234
Pd 400.744 412.128 422.355
Pd 399.128 413.744 421.153
Pd 398.415 417.335 420.74
Pd 400.405 416.052 421.734
Pd 399.104 417.85 423.679
Pd 417.633 401.073 413.136
Pd 416.313 404.432 412.201
Pd 418.941 403.294 412.354
Pd 416.85 402.917 414.795
Pd 414.446 404.429 414.148
Pd 413.307 407.571 413.749
Pd 415.814 406.638 414.084
Pd 413.603 405.628 416.276
Pd 411.283 407.298 415.813
Pd 408.613 410.868 416.113
Pd 412.31 409.825 415.424
Pd 410.204 409.166 417.541
Pd 406.711 410.201 418.021
Pd 407.355 412.92 417.944
Pd 409.125 411.245 418.967
Pd 405.797 412.281 419.854
Pd 404.055 413.788 418.848
Pd 404.209 416.907 418.246
Pd 406.558 414.823 419.385
Pd 402.99 416.108 420.434
Pd 401.111 417.878 419.364
Pd 401.485 420.475 419.14
Pd 403.59 418.774 419.749
Pd 399.933 419.471 421.26
Pd 418.382 404.803 410.489
Pd 417.302 408.439 409.714
Pd 419.74 407.227 410.178
Pd 417.818 406.743 412.039
Pd 415.394 408.104 412.084
Pd 412.901 412.07 412.61
Pd 416.414 410.784 411.907
Pd 414.32 410.102 413.786
Pd 410.819 411.839 414.457
Pd 411.488 413.943 413.727
Pd 413.443 412.185 415.211
Pd 411.045 411.592 416.856
Pd 409.204 413.512 415.767
Pd 409.837 415.761 414.78
Pd 411.896 414.168 416.247
Pd 410.024 413.718 418.286
Pd 407.847 415.561 417.068
Pd 408.686 418.065 416.169
Pd 410.491 416.326 417.491
Pd 406.992 417.586 418.49
Pd 405.108 419.346 417.592
Pd 405.312 422.043 416.515
Pd 407.62 420.144 417.7
Pd 403.881 421.409 419.078
Pd 418.888 408.515 407.73
Pd 417.143 412.974 408.887
Pd 419.024 413.596 407.067
Pd 418.354 410.915 410.199
Pd 414.934 412.625 410.66
Pd 415.979 415.277 410.15
Pd 417.242 413.57 411.592
Pd 415.341 412.807 413.441
Pd 413.538 414.573 411.834
Pd 413.994 416.944 411.143
Pd 415.778 415.561 412.763
Pd 413.778 414.89 414.447
Pd 411.675 416.426 412.714
Pd 412.18 418.948 412.168
Pd 414.023 417.497 413.728
Pd 412.308 416.727 415.457
Pd 410.237 418.288 413.969
Pd 410.895 421.025 412.989
Pd 412.667 419.451 414.665
Pd 410.946 419.012 416.671
Pd 409.204 420.54 415.221
Pd 409.544 423.235 414.912
Pd 411.438 421.649 415.682
Pd 408.101 422.436 416.937
Pd 417.748 410.881 407.232
Pd 419.698 415.908 407.006
Pd 422.306 412.378 409.941
Pd 419.413 413.953 410.008
Pd 417.698 415.505 408.438
Pd 418.684 418.147 407.957
Pd 421.266 414.134 408.466
Pd 418.248 416.144 411.297
Pd 416.517 417.633 409.708
Pd 416.891 420.065 408.841
Pd 418.983 418.718 410.435
Pd 416.627 417.947 412.281
Pd 414.864 419.382 410.283
Pd 415.049 421.999 409.6
Pd 417.022 420.327 411.384
Pd 414.53 419.961 412.839
Pd 412.894 421.362 411.283
Pd 413.084 423.815 410.942
Pd 415.284 422.384 412.049
Pd 413.238 422.516 413.851
Pd 411.189 423.8 412.603
Pd 408.803 422.667 412.443
Pd 413.957 424.916 413.394
Pd 411.813 424.361 415.168
Pd 411.863 398.707 420.181
Pd 411.832 400.628 418.698
Pd 414.037 400.538 420.681
Pd 409.319 399.624 420.476
Pd 409.22 401.487 422.618
Pd 407.557 406.126 422.728
Pd 412.579 402.737 420.389
Pd 410.1 405.951 423.367
Pd 406.659 404.087 425.219
Pd 405.339 406.353 423.984
Pd 406.65 408.759 423.487
Pd 413.978 403.614 425.277
Pd 405.316 406.044 426.438
Pd 406.086 410.853 424.886
Pd 408.916 408.365 421.884
Pd 410.683 405.27 425.701
Pd 407.889 406.202 425.3
Pd 401.718 412.703 424.821
Pd 405.234 413.108 426.144
Pd 404.242 408.373 427.215
Pd 403.533 411.185 426.113
Pd 401.082 411.373 426.977
Pd 402.864 413.381 427.676
Pd 403.114 410.785 428.446
Pd 416.365 399.145 417.023
Pd 416.948 401.656 417.532
Pd 419.416 401.56 417.469
Pd 415.359 402.528 419.847
Pd 412.538 403.04 417.85
Pd 412.016 406.213 418.105
Pd 414.239 404.981 418.96
Pd 412.32 405.509 420.925
Pd 409.592 406.107 420.548
Pd 411.191 407.961 419.788
Pd 413.764 407.479 419.912
Pd 411.84 407.814 422.332
Pd 407.578 410.457 420.797
Pd 406.884 412.535 422.507
Pd 411.148 409.977 423.864
Pd 407.68 412.751 424.967
Pd 404.304 412.8 423.597
Pd 402.357 414.562 422.681
Pd 406.23 414.545 423.99
Pd 403.47 414.806 425.099
Pd 399.872 414.407 423.725
Pd 398.755 415.94 425.429
Pd 401.486 416.633 424.31
Pd 401.047 415.213 426.334
Pd 419.284 402.327 414.774
Pd 418.325 405.294 414.24
Pd 421.126 403.902 416.788
Pd 418.575 403.898 416.705
Pd 416.508 405.405 416.188
Pd 414.942 408.505 415.657
Pd 417.662 407.724 416.173
Pd 415.509 407.098 417.813
Pd 413.096 408.569 417.294
Pd 412.438 410.353 418.841
Pd 415.061 409.462 419.15
Pd 413.191 409.586 421.319
Pd 410.476 410.18 420.975
Pd 408.573 413.252 420.579
Pd 412.301 411.795 422.572
Pd 409.105 414.485 423.622
Pd 404.877 414.375 421.412
Pd 405.441 416.902 420.692
Pd 407.488 415.245 421.669
Pd 404.112 416.526 423.077
Pd 402.108 418.004 421.969
Pd 402.448 420.467 421.789
Pd 404.592 419.073 422.172
Pd 400.609 418.106 425.864
Pd 420.13 405.679 412.354
Pd 418.892 408.978 411.879
Pd 421.583 408.096 411.75
Pd 419.77 407.875 413.943
Pd 417.042 409.088 413.891
Pd 416.343 411.434 415.279
Pd 419.033 410.013 415.365
Pd 417.189 409.724 417.427
Pd 414.48 410.874 417.178
Pd 413.193 412.909 418.136
Pd 416.421 412.092 418.304
Pd 414.355 411.666 420.122
Pd 411.453 412.312 420.071
Pd 411.959 415.153 419.322
Pd 413.635 413.799 421.107
Pd 410.74 414.395 421.427
Pd 409.263 415.784 419.769
Pd 409.607 418.569 418.649
Pd 411.409 417.259 420.83
Pd 408.046 417.823 420.911
Pd 406.096 419.575 419.813
Pd 406.421 422.052 419.088
Pd 408.552 420.59 420.067
Pd 404.939 421.621 421.285
Pd 421.352 409.855 409.978
Pd 420.118 411.895 411.775
Pd 423.239 410.719 411.531
Pd 421.015 410.042 413.328
Pd 418.192 411.655 413.31
Pd 417.02 414.07 414.61
Pd 420.297 412.404 414.472
Pd 418.468 412.484 416.385
Pd 415.149 413.548 416.497
Pd 415.843 416.082 415.747
Pd 417.283 414.427 417.503
Pd 415.36 414.175 419.196
Pd 413.758 415.605 417.441
Pd 414.31 418.261 416.49
Pd 415.875 416.824 418.575
Pd 413.984 416.654 420.343
Pd 412.548 417.751 418.414
Pd 413.146 420.183 417.515
Pd 414.692 418.99 419.342
Pd 411.712 420.02 419.815
Pd 410.129 421.347 418.063
Pd 410.815 423.79 417.504
Pd 412.567 422.537 418.736
Pd 408.847 423.353 419.374
Pd 419.918 411.65 408.381
Pd 421.634 414.919 411.03
Pd 421.731 415.466 414.076
Pd 422.322 412.996 412.827
Pd 419.522 414.317 412.8
Pd 420.259 416.511 409.565
Pd 420.427 417.058 412.119
Pd 419.471 414.622 415.528
Pd 418.219 416.518 413.831
Pd 418.977 419.08 412.956
Pd 420.296 417.592 415.089
Pd 417.953 416.852 416.717
Pd 416.48 418.456 414.713
Pd 416.869 420.931 413.788
Pd 418.763 419.654 415.523
Pd 416.823 419.179 417.263
Pd 414.892 420.704 415.456
Pd 415.752 423.407 414.519
Pd 417.247 421.833 416.062
Pd 415.466 421.69 418.152
Pd 413.709 422.795 416.49
Pd 414.178 425.294 415.737
Pd 415.924 423.915 417.243
Pd 413.112 424.862 417.982
Pd 413.572 402.273 422.937
Pd 411.586 400.802 421.576
Pd 409.834 402.201 420.016
Pd 416.116 399.955 419.434
Pd 412.866 405.078 423.59
Pd 411.583 402.782 424.347
Pd 416.073 403.927 424.081
Pd 410.916 403.584 422.101
Pd 408.811 403.766 424.018
Pd 411.853 407.544 425.017
Pd 414.609 406.223 424.995
Pd 408.371 410.221 426.396
Pd 406.584 408.35 426.129
Pd 407.422 412.806 427.647
Pd 410.131 411.831 427.841
Pd 408.44 410.515 423.792
Pd 405.742 410.534 427.61
Pd 406.779 414.9 426.784
Pd 409.64 414.135 428.732
Pd 404.946 412.736 428.832
Pd 401.944 409.111 426.185
Pd 402.93 416.94 426.605
Pd 406.88 414.651 429.339
Pd 404.696 415.174 427.808
Pd 417.846 401.785 419.843
Pd 416.865 404.19 418.998
Pd 419.443 403.581 419.25
Pd 416.158 402.076 422.244
Pd 414.666 404.217 421.892
Pd 416.167 406.615 420.346
Pd 418.674 405.878 420.515
Pd 416.732 406.385 422.884
Pd 414.415 406.923 422.353
Pd 413.698 409.131 423.932
Pd 416.278 408.413 424.35
Pd 414.358 409.254 426.589
Pd 411.067 409.775 426.515
Pd 409.746 412.294 422.496
Pd 412.813 411.299 427.57
Pd 410.164 411.958 425.365
Pd 409.307 414.444 426.451
Pd 408.034 416.599 425.225
Pd 411.332 416.212 427.785
Pd 408.69 416.366 427.931
Pd 405.281 416.797 425.391
Pd 404.648 418.964 426.838
Pd 407.404 418.737 426.727
Pd 406.228 417.254 428.052
Pd 420.869 406.114 418.434
Pd 420.232 406.22 415.839
Pd 422.659 406.059 416.543
Pd 417.212 404.247 421.648
Pd 418.381 406.166 418.02
Pd 417.978 408.579 419.587
Pd 420.425 408.007 420.089
Pd 418.685 407.831 422.221
Pd 416.02 408.962 421.747
Pd 415.035 411.219 422.683
Pd 417.416 410.601 423.191
Pd 415.691 410.838 425.205
Pd 413.109 411.563 425.144
Pd 411.445 413.865 424.094
Pd 414.831 413.271 426.189
Pd 411.77 413.586 426.811
Pd 410.571 416.233 424.957
Pd 406.579 417.498 423.066
Pd 412.591 417.728 425.932
Pd 410.161 418.46 426.166
Pd 402.917 419.05 424.507
Pd 400.716 419.843 423.568
Pd 405.549 419.751 424.675
Pd 403.947 421.394 423.566
Pd 420.93 404.28 414.26
Pd 421.655 408.576 415.675
Pd 422.279 406.532 413.838
Pd 422.464 408.055 418.09
Pd 419.728 408.551 417.577
Pd 419.372 410.845 418.756
Pd 421.875 410.17 419.308
Pd 419.515 410.145 421.254
Pd 417.112 411.001 420.615
Pd 416.246 413.209 421.561
Pd 418.893 412.461 422.176
Pd 416.898 413.279 424.046
Pd 414.234 413.413 423.633
Pd 411.708 418.266 423.75
Pd 416.047 415.534 425.088
Pd 413.327 415.243 425.24
Pd 409.771 416.746 422.571
Pd 409.955 419.484 421.935
Pd 410.854 420.374 424.557
Pd 408.785 418.68 424.058
Pd 407.143 419.977 422.257
Pd 407.397 422.698 421.559
Pd 408.265 420.674 425.263
Pd 406.527 421.982 423.948
Pd 423.259 409.006 413.603
Pd 424.585 412.511 416.455
Pd 424.835 411.498 413.312
Pd 424.179 408.198 416.087
Pd 421.08 410.956 416.681
Pd 420.349 413.232 418.029
Pd 423.449 410.368 417.379
Pd 420.9 412.488 420.377
Pd 418.234 413.343 419.629
Pd 417.23 415.421 420.539
Pd 420.037 414.845 420.984
Pd 417.906 415.174 422.928
Pd 415.438 415.517 422.631
Pd 416.127 417.906 421.324
Pd 417.346 417.648 423.464
Pd 414.801 417.636 424.023
Pd 412.904 415.901 422.776
Pd 413.346 418.658 421.956
Pd 415.547 419.948 422.86
Pd 413.722 420.015 424.562
Pd 410.624 422.261 420.681
Pd 410.998 424.718 419.931
Pd 412.06 421.052 422.444
Pd 409.435 421.671 423.004
Pd 423.754 415.264 416.835
Pd 425.582 410.316 415.329
Pd 424.284 413.524 411.589
Pd 422.933 411.377 414.998
Pd 421.974 413.651 416.082
Pd 421.477 415.904 416.766
Pd 424.058 414.28 414.493
Pd 422.988 412.461 418.371
Pd 419.305 415.681 418.841
Pd 419.893 418.281 417.855
Pd 421.972 414.746 419.152
Pd 419.088 417.159 421.349
Pd 417.86 418.058 419.447
Pd 418.775 420.724 418.002
Pd 421.251 417.087 419.708
Pd 417.834 419.766 422.05
Pd 416.877 420.365 419.838
Pd 417.427 423.113 419.102
Pd 419.8 419.477 420.228
Pd 414.348 422.06 423.159
Pd 414.2 421.17 420.561
Pd 412.78 423.391 421.283
Pd 414.954 423.675 420.14
Pd 416.561 422.281 421.572
