923
Atoms. Timestep: 0
Pd 400 400 400
Pd 402.427 400 401.5
Pd 402.427 400 398.5
Pd 401.5 402.427 400
Pd 398.5 402.427 400
Pd 400 401.5 402.427
Pd 400 398.5 402.427
Pd 401.5 397.573 400
Pd 400 401.5 397.573
Pd 397.573 400 401.5
Pd 400 398.5 397.573
Pd 397.573 400 398.5
Pd 398.5 397.573 400
Pd 404.854 400 403
Pd 404.854 400 397
Pd 403 404.854 400
Pd 397 404.854 400
Pd 400 403 404.854
Pd 400 397 404.854
Pd 403 395.146 400
Pd 400 403 395.146
Pd 395.146 400 403
Pd 400 397 395.146
Pd 395.146 400 397
Pd 397 395.146 400
Pd 404.854 400 400
Pd 403.927 402.427 401.5
Pd 402.427 401.5 403.927
Pd 402.427 398.5 403.927
Pd 403.927 397.573 401.5
Pd 396.073 402.427 398.5
Pd 397.573 401.5 396.073
Pd 395.146 400 400
Pd 397.573 398.5 396.073
Pd 396.073 397.573 398.5
Pd 403.927 402.427 398.5
Pd 403.927 397.573 398.5
Pd 402.427 401.5 396.073
Pd 402.427 398.5 396.073
Pd 396.073 402.427 401.5
Pd 397.573 401.5 403.927
Pd 397.573 398.5 403.927
Pd 396.073 397.573 401.5
Pd 400 404.854 400
Pd 401.5 403.927 402.427
Pd 401.5 403.927 397.573
Pd 398.5 396.073 402.427
Pd 400 395.146 400
Pd 398.5 396.073 397.573
Pd 401.5 396.073 402.427
Pd 401.5 396.073 397.573
Pd 398.5 403.927 402.427
Pd 398.5 403.927 397.573
Pd 400 400 395.146
Pd 400 400 404.854
Pd 407.281 400 404.5
Pd 407.281 400 395.5
Pd 404.5 407.281 400
Pd 395.5 407.281 400
Pd 400 404.5 407.281
Pd 400 395.5 407.281
Pd 404.5 392.719 400
Pd 400 404.5 392.719
Pd 392.719 400 404.5
Pd 400 395.5 392.719
Pd 392.719 400 395.5
Pd 395.5 392.719 400
Pd 407.281 400 401.5
Pd 407.281 400 398.5
Pd 406.354 402.427 403
Pd 405.427 404.854 401.5
Pd 404.854 401.5 405.427
Pd 402.427 403 406.354
Pd 404.854 398.5 405.427
Pd 402.427 397 406.354
Pd 406.354 397.573 403
Pd 405.427 395.146 401.5
Pd 393.646 402.427 397
Pd 394.573 404.854 398.5
Pd 395.146 401.5 394.573
Pd 397.573 403 393.646
Pd 392.719 400 398.5
Pd 392.719 400 401.5
Pd 395.146 398.5 394.573
Pd 397.573 397 393.646
Pd 393.646 397.573 397
Pd 394.573 395.146 398.5
Pd 406.354 402.427 397
Pd 405.427 404.854 398.5
Pd 406.354 397.573 397
Pd 405.427 395.146 398.5
Pd 404.854 401.5 394.573
Pd 402.427 403 393.646
Pd 404.854 398.5 394.573
Pd 402.427 397 393.646
Pd 393.646 402.427 403
Pd 394.573 404.854 401.5
Pd 395.146 401.5 405.427
Pd 397.573 403 406.354
Pd 395.146 398.5 405.427
Pd 397.573 397 406.354
Pd 393.646 397.573 403
Pd 394.573 395.146 401.5
Pd 401.5 407.281 400
Pd 398.5 407.281 400
Pd 403 406.354 402.427
Pd 401.5 405.427 404.854
Pd 403 406.354 397.573
Pd 401.5 405.427 395.146
Pd 397 393.646 402.427
Pd 398.5 394.573 404.854
Pd 398.5 392.719 400
Pd 401.5 392.719 400
Pd 397 393.646 397.573
Pd 398.5 394.573 395.146
Pd 403 393.646 402.427
Pd 401.5 394.573 404.854
Pd 403 393.646 397.573
Pd 401.5 394.573 395.146
Pd 397 406.354 402.427
Pd 398.5 405.427 404.854
Pd 397 406.354 397.573
Pd 398.5 405.427 395.146
Pd 400 401.5 392.719
Pd 400 398.5 392.719
Pd 400 398.5 407.281
Pd 400 401.5 407.281
Pd 406.354 402.427 400
Pd 403.927 403.927 403.927
Pd 402.427 400 406.354
Pd 403.927 396.073 403.927
Pd 406.354 397.573 400
Pd 396.073 403.927 396.073
Pd 393.646 402.427 400
Pd 393.646 397.573 400
Pd 396.073 396.073 396.073
Pd 397.573 400 393.646
Pd 403.927 403.927 396.073
Pd 402.427 400 393.646
Pd 403.927 396.073 396.073
Pd 396.073 396.073 403.927
Pd 397.573 400 406.354
Pd 396.073 403.927 403.927
Pd 400 406.354 397.573
Pd 400 406.354 402.427
Pd 400 393.646 402.427
Pd 400 393.646 397.573
Pd 409.708 400 406
Pd 409.708 400 394
Pd 406 409.708 400
Pd 394 409.708 400
Pd 400 406 409.708
Pd 400 394 409.708
Pd 406 390.292 400
Pd 400 406 390.292
Pd 390.292 400 406
Pd 400 394 390.292
Pd 390.292 400 394
Pd 394 390.292 400
Pd 409.708 400 403
Pd 409.708 400 400
Pd 409.708 400 397
Pd 408.781 402.427 404.5
Pd 407.854 404.854 403
Pd 406.927 407.281 401.5
Pd 407.281 401.5 406.927
Pd 404.854 403 407.854
Pd 402.427 404.5 408.781
Pd 407.281 398.5 406.927
Pd 404.854 397 407.854
Pd 402.427 395.5 408.781
Pd 408.781 397.573 404.5
Pd 407.854 395.146 403
Pd 406.927 392.719 401.5
Pd 391.219 402.427 395.5
Pd 392.146 404.854 397
Pd 393.073 407.281 398.5
Pd 392.719 401.5 393.073
Pd 395.146 403 392.146
Pd 397.573 404.5 391.219
Pd 390.292 400 397
Pd 390.292 400 400
Pd 390.292 400 403
Pd 392.719 398.5 393.073
Pd 395.146 397 392.146
Pd 397.573 395.5 391.219
Pd 391.219 397.573 395.5
Pd 392.146 395.146 397
Pd 393.073 392.719 398.5
Pd 408.781 402.427 395.5
Pd 407.854 404.854 397
Pd 406.927 407.281 398.5
Pd 408.781 397.573 395.5
Pd 407.854 395.146 397
Pd 406.927 392.719 398.5
Pd 407.281 401.5 393.073
Pd 404.854 403 392.146
Pd 402.427 404.5 391.219
Pd 407.281 398.5 393.073
Pd 404.854 397 392.146
Pd 402.427 395.5 391.219
Pd 391.219 402.427 404.5
Pd 392.146 404.854 403
Pd 393.073 407.281 401.5
Pd 392.719 401.5 406.927
Pd 395.146 403 407.854
Pd 397.573 404.5 408.781
Pd 392.719 398.5 406.927
Pd 395.146 397 407.854
Pd 397.573 395.5 408.781
Pd 391.219 397.573 404.5
Pd 392.146 395.146 403
Pd 393.073 392.719 401.5
Pd 403 409.708 400
Pd 400 409.708 400
Pd 397 409.708 400
Pd 404.5 408.781 402.427
Pd 403 407.854 404.854
Pd 401.5 406.927 407.281
Pd 404.5 408.781 397.573
Pd 403 407.854 395.146
Pd 401.5 406.927 392.719
Pd 395.5 391.219 402.427
Pd 397 392.146 404.854
Pd 398.5 393.073 407.281
Pd 397 390.292 400
Pd 400 390.292 400
Pd 403 390.292 400
Pd 395.5 391.219 397.573
Pd 397 392.146 395.146
Pd 398.5 393.073 392.719
Pd 404.5 391.219 402.427
Pd 403 392.146 404.854
Pd 401.5 393.073 407.281
Pd 404.5 391.219 397.573
Pd 403 392.146 395.146
Pd 401.5 393.073 392.719
Pd 395.5 408.781 402.427
Pd 397 407.854 404.854
Pd 398.5 406.927 407.281
Pd 395.5 408.781 397.573
Pd 397 407.854 395.146
Pd 398.5 406.927 392.719
Pd 400 403 390.292
Pd 400 400 390.292
Pd 400 397 390.292
Pd 400 397 409.708
Pd 400 400 409.708
Pd 400 403 409.708
Pd 408.781 402.427 401.5
Pd 408.781 402.427 398.5
Pd 407.854 404.854 400
Pd 406.354 403.927 405.427
Pd 405.427 406.354 403.927
Pd 403.927 405.427 406.354
Pd 404.854 400 407.854
Pd 402.427 401.5 408.781
Pd 402.427 398.5 408.781
Pd 406.354 396.073 405.427
Pd 403.927 394.573 406.354
Pd 405.427 393.646 403.927
Pd 408.781 397.573 401.5
Pd 408.781 397.573 398.5
Pd 407.854 395.146 400
Pd 393.646 403.927 394.573
Pd 394.573 406.354 396.073
Pd 396.073 405.427 393.646
Pd 391.219 402.427 398.5
Pd 392.146 404.854 400
Pd 391.219 402.427 401.5
Pd 391.219 397.573 398.5
Pd 391.219 397.573 401.5
Pd 392.146 395.146 400
Pd 393.646 396.073 394.573
Pd 396.073 394.573 393.646
Pd 394.573 393.646 396.073
Pd 395.146 400 392.146
Pd 397.573 401.5 391.219
Pd 397.573 398.5 391.219
Pd 406.354 403.927 394.573
Pd 405.427 406.354 396.073
Pd 403.927 405.427 393.646
Pd 404.854 400 392.146
Pd 402.427 401.5 391.219
Pd 402.427 398.5 391.219
Pd 406.354 396.073 394.573
Pd 405.427 393.646 396.073
Pd 403.927 394.573 393.646
Pd 393.646 396.073 405.427
Pd 396.073 394.573 406.354
Pd 394.573 393.646 403.927
Pd 395.146 400 407.854
Pd 397.573 401.5 408.781
Pd 397.573 398.5 408.781
Pd 393.646 403.927 405.427
Pd 394.573 406.354 403.927
Pd 396.073 405.427 406.354
Pd 401.5 408.781 397.573
Pd 398.5 408.781 397.573
Pd 400 407.854 395.146
Pd 401.5 408.781 402.427
Pd 398.5 408.781 402.427
Pd 400 407.854 404.854
Pd 398.5 391.219 402.427
Pd 400 392.146 404.854
Pd 401.5 391.219 402.427
Pd 398.5 391.219 397.573
Pd 401.5 391.219 397.573
Pd 400 392.146 395.146
Pd 412.135 400 407.5
Pd 412.135 400 392.5
Pd 407.5 412.135 400
Pd 392.5 412.135 400
Pd 400 407.5 412.135
Pd 400 392.5 412.135
Pd 407.5 387.865 400
Pd 400 407.5 387.865
Pd 387.865 400 407.5
Pd 400 392.5 387.865
Pd 387.865 400 392.5
Pd 392.5 387.865 400
Pd 412.135 400 404.5
Pd 412.135 400 401.5
Pd 412.135 400 398.5
Pd 412.135 400 395.5
Pd 411.208 402.427 406
Pd 410.281 404.854 404.5
Pd 409.354 407.281 403
Pd 408.427 409.708 401.5
Pd 409.708 401.5 408.427
Pd 407.281 403 409.354
Pd 404.854 404.5 410.281
Pd 402.427 406 411.208
Pd 409.708 398.5 408.427
Pd 407.281 397 409.354
Pd 404.854 395.5 410.281
Pd 402.427 394 411.208
Pd 411.208 397.573 406
Pd 410.281 395.146 404.5
Pd 409.354 392.719 403
Pd 408.427 390.292 401.5
Pd 388.792 402.427 394
Pd 389.719 404.854 395.5
Pd 390.646 407.281 397
Pd 391.573 409.708 398.5
Pd 390.292 401.5 391.573
Pd 392.719 403 390.646
Pd 395.146 404.5 389.719
Pd 397.573 406 388.792
Pd 387.865 400 395.5
Pd 387.865 400 398.5
Pd 387.865 400 401.5
Pd 387.865 400 404.5
Pd 390.292 398.5 391.573
Pd 392.719 397 390.646
Pd 395.146 395.5 389.719
Pd 397.573 394 388.792
Pd 388.792 397.573 394
Pd 389.719 395.146 395.5
Pd 390.646 392.719 397
Pd 391.573 390.292 398.5
Pd 411.208 402.427 394
Pd 410.281 404.854 395.5
Pd 409.354 407.281 397
Pd 408.427 409.708 398.5
Pd 411.208 397.573 394
Pd 410.281 395.146 395.5
Pd 409.354 392.719 397
Pd 408.427 390.292 398.5
Pd 409.708 401.5 391.573
Pd 407.281 403 390.646
Pd 404.854 404.5 389.719
Pd 402.427 406 388.792
Pd 409.708 398.5 391.573
Pd 407.281 397 390.646
Pd 404.854 395.5 389.719
Pd 402.427 394 388.792
Pd 388.792 402.427 406
Pd 389.719 404.854 404.5
Pd 390.646 407.281 403
Pd 391.573 409.708 401.5
Pd 390.292 401.5 408.427
Pd 392.719 403 409.354
Pd 395.146 404.5 410.281
Pd 397.573 406 411.208
Pd 390.292 398.5 408.427
Pd 392.719 397 409.354
Pd 395.146 395.5 410.281
Pd 397.573 394 411.208
Pd 388.792 397.573 406
Pd 389.719 395.146 404.5
Pd 390.646 392.719 403
Pd 391.573 390.292 401.5
Pd 404.5 412.135 400
Pd 401.5 412.135 400
Pd 398.5 412.135 400
Pd 395.5 412.135 400
Pd 406 411.208 402.427
Pd 404.5 410.281 404.854
Pd 403 409.354 407.281
Pd 401.5 408.427 409.708
Pd 406 411.208 397.573
Pd 404.5 410.281 395.146
Pd 403 409.354 392.719
Pd 401.5 408.427 390.292
Pd 394 388.792 402.427
Pd 395.5 389.719 404.854
Pd 397 390.646 407.281
Pd 398.5 391.573 409.708
Pd 395.5 387.865 400
Pd 398.5 387.865 400
Pd 401.5 387.865 400
Pd 404.5 387.865 400
Pd 394 388.792 397.573
Pd 395.5 389.719 395.146
Pd 397 390.646 392.719
Pd 398.5 391.573 390.292
Pd 406 388.792 402.427
Pd 404.5 389.719 404.854
Pd 403 390.646 407.281
Pd 401.5 391.573 409.708
Pd 406 388.792 397.573
Pd 404.5 389.719 395.146
Pd 403 390.646 392.719
Pd 401.5 391.573 390.292
Pd 394 411.208 402.427
Pd 395.5 410.281 404.854
Pd 397 409.354 407.281
Pd 398.5 408.427 409.708
Pd 394 411.208 397.573
Pd 395.5 410.281 395.146
Pd 397 409.354 392.719
Pd 398.5 408.427 390.292
Pd 400 404.5 387.865
Pd 400 401.5 387.865
Pd 400 398.5 387.865
Pd 400 395.5 387.865
Pd 400 395.5 412.135
Pd 400 398.5 412.135
Pd 400 401.5 412.135
Pd 400 404.5 412.135
Pd 411.208 402.427 403
Pd 411.208 402.427 400
Pd 410.281 404.854 401.5
Pd 411.208 402.427 397
Pd 410.281 404.854 398.5
Pd 409.354 407.281 400
Pd 408.781 403.927 406.927
Pd 407.854 406.354 405.427
Pd 406.354 405.427 407.854
Pd 406.927 408.781 403.927
Pd 405.427 407.854 406.354
Pd 403.927 406.927 408.781
Pd 407.281 400 409.354
Pd 404.854 401.5 410.281
Pd 404.854 398.5 410.281
Pd 402.427 403 411.208
Pd 402.427 400 411.208
Pd 402.427 397 411.208
Pd 408.781 396.073 406.927
Pd 406.354 394.573 407.854
Pd 407.854 393.646 405.427
Pd 403.927 393.073 408.781
Pd 405.427 392.146 406.354
Pd 406.927 391.219 403.927
Pd 411.208 397.573 403
Pd 411.208 397.573 400
Pd 410.281 395.146 401.5
Pd 411.208 397.573 397
Pd 410.281 395.146 398.5
Pd 409.354 392.719 400
Pd 391.219 403.927 393.073
Pd 392.146 406.354 394.573
Pd 393.646 405.427 392.146
Pd 393.073 408.781 396.073
Pd 394.573 407.854 393.646
Pd 396.073 406.927 391.219
Pd 388.792 402.427 397
Pd 389.719 404.854 398.5
Pd 388.792 402.427 400
Pd 390.646 407.281 400
Pd 389.719 404.854 401.5
Pd 388.792 402.427 403
Pd 388.792 397.573 397
Pd 388.792 397.573 400
Pd 389.719 395.146 398.5
Pd 388.792 397.573 403
Pd 389.719 395.146 401.5
Pd 390.646 392.719 400
Pd 391.219 396.073 393.073
Pd 393.646 394.573 392.146
Pd 392.146 393.646 394.573
Pd 396.073 393.073 391.219
Pd 394.573 392.146 393.646
Pd 393.073 391.219 396.073
Pd 392.719 400 390.646
Pd 395.146 401.5 389.719
Pd 395.146 398.5 389.719
Pd 397.573 403 388.792
Pd 397.573 400 388.792
Pd 397.573 397 388.792
Pd 408.781 403.927 393.073
Pd 407.854 406.354 394.573
Pd 406.354 405.427 392.146
Pd 406.927 408.781 396.073
Pd 405.427 407.854 393.646
Pd 403.927 406.927 391.219
Pd 407.281 400 390.646
Pd 404.854 401.5 389.719
Pd 404.854 398.5 389.719
Pd 402.427 403 388.792
Pd 402.427 400 388.792
Pd 402.427 397 388.792
Pd 408.781 396.073 393.073
Pd 407.854 393.646 394.573
Pd 406.354 394.573 392.146
Pd 406.927 391.219 396.073
Pd 405.427 392.146 393.646
Pd 403.927 393.073 391.219
Pd 391.219 396.073 406.927
Pd 393.646 394.573 407.854
Pd 392.146 393.646 405.427
Pd 396.073 393.073 408.781
Pd 394.573 392.146 406.354
Pd 393.073 391.219 403.927
Pd 392.719 400 409.354
Pd 395.146 401.5 410.281
Pd 395.146 398.5 410.281
Pd 397.573 403 411.208
Pd 397.573 400 411.208
Pd 397.573 397 411.208
Pd 391.219 403.927 406.927
Pd 392.146 406.354 405.427
Pd 393.646 405.427 407.854
Pd 393.073 408.781 403.927
Pd 394.573 407.854 406.354
Pd 396.073 406.927 408.781
Pd 403 411.208 397.573
Pd 400 411.208 397.573
Pd 401.5 410.281 395.146
Pd 397 411.208 397.573
Pd 398.5 410.281 395.146
Pd 400 409.354 392.719
Pd 403 411.208 402.427
Pd 400 411.208 402.427
Pd 401.5 410.281 404.854
Pd 397 411.208 402.427
Pd 398.5 410.281 404.854
Pd 400 409.354 407.281
Pd 397 388.792 402.427
Pd 398.5 389.719 404.854
Pd 400 388.792 402.427
Pd 400 390.646 407.281
Pd 401.5 389.719 404.854
Pd 403 388.792 402.427
Pd 397 388.792 397.573
Pd 400 388.792 397.573
Pd 398.5 389.719 395.146
Pd 403 388.792 397.573
Pd 401.5 389.719 395.146
Pd 400 390.646 392.719
Pd 414.562 400 409
Pd 414.562 400 391
Pd 409 414.562 400
Pd 391 414.562 400
Pd 400 409 414.562
Pd 400 391 414.562
Pd 409 385.438 400
Pd 400 409 385.438
Pd 385.438 400 409
Pd 400 391 385.438
Pd 385.438 400 391
Pd 391 385.438 400
Pd 414.562 400 406
Pd 414.562 400 403
Pd 414.562 400 400
Pd 414.562 400 397
Pd 414.562 400 394
Pd 413.635 402.427 407.5
Pd 412.708 404.854 406
Pd 411.781 407.281 404.5
Pd 410.854 409.708 403
Pd 409.927 412.135 401.5
Pd 412.135 401.5 409.927
Pd 409.708 403 410.854
Pd 407.281 404.5 411.781
Pd 404.854 406 412.708
Pd 402.427 407.5 413.635
Pd 412.135 398.5 409.927
Pd 409.708 397 410.854
Pd 407.281 395.5 411.781
Pd 404.854 394 412.708
Pd 402.427 392.5 413.635
Pd 413.635 397.573 407.5
Pd 412.708 395.146 406
Pd 411.781 392.719 404.5
Pd 410.854 390.292 403
Pd 409.927 387.865 401.5
Pd 386.365 402.427 392.5
Pd 387.292 404.854 394
Pd 388.219 407.281 395.5
Pd 389.146 409.708 397
Pd 390.073 412.135 398.5
Pd 387.865 401.5 390.073
Pd 390.292 403 389.146
Pd 392.719 404.5 388.219
Pd 395.146 406 387.292
Pd 397.573 407.5 386.365
Pd 385.438 400 394
Pd 385.438 400 397
Pd 385.438 400 400
Pd 385.438 400 403
Pd 385.438 400 406
Pd 387.865 398.5 390.073
Pd 390.292 397 389.146
Pd 392.719 395.5 388.219
Pd 395.146 394 387.292
Pd 397.573 392.5 386.365
Pd 386.365 397.573 392.5
Pd 387.292 395.146 394
Pd 388.219 392.719 395.5
Pd 389.146 390.292 397
Pd 390.073 387.865 398.5
Pd 413.635 402.427 392.5
Pd 412.708 404.854 394
Pd 411.781 407.281 395.5
Pd 410.854 409.708 397
Pd 409.927 412.135 398.5
Pd 413.635 397.573 392.5
Pd 412.708 395.146 394
Pd 411.781 392.719 395.5
Pd 410.854 390.292 397
Pd 409.927 387.865 398.5
Pd 412.135 401.5 390.073
Pd 409.708 403 389.146
Pd 407.281 404.5 388.219
Pd 404.854 406 387.292
Pd 402.427 407.5 386.365
Pd 412.135 398.5 390.073
Pd 409.708 397 389.146
Pd 407.281 395.5 388.219
Pd 404.854 394 387.292
Pd 402.427 392.5 386.365
Pd 386.365 402.427 407.5
Pd 387.292 404.854 406
Pd 388.219 407.281 404.5
Pd 389.146 409.708 403
Pd 390.073 412.135 401.5
Pd 387.865 401.5 409.927
Pd 390.292 403 410.854
Pd 392.719 404.5 411.781
Pd 395.146 406 412.708
Pd 397.573 407.5 413.635
Pd 387.865 398.5 409.927
Pd 390.292 397 410.854
Pd 392.719 395.5 411.781
Pd 395.146 394 412.708
Pd 397.573 392.5 413.635
Pd 386.365 397.573 407.5
Pd 387.292 395.146 406
Pd 388.219 392.719 404.5
Pd 389.146 390.292 403
Pd 390.073 387.865 401.5
Pd 406 414.562 400
Pd 403 414.562 400
Pd 400 414.562 400
Pd 397 414.562 400
Pd 394 414.562 400
Pd 407.5 413.635 402.427
Pd 406 412.708 404.854
Pd 404.5 411.781 407.281
Pd 403 410.854 409.708
Pd 401.5 409.927 412.135
Pd 407.5 413.635 397.573
Pd 406 412.708 395.146
Pd 404.5 411.781 392.719
Pd 403 410.854 390.292
Pd 401.5 409.927 387.865
Pd 392.5 386.365 402.427
Pd 394 387.292 404.854
Pd 395.5 388.219 407.281
Pd 397 389.146 409.708
Pd 398.5 390.073 412.135
Pd 394 385.438 400
Pd 397 385.438 400
Pd 400 385.438 400
Pd 403 385.438 400
Pd 406 385.438 400
Pd 392.5 386.365 397.573
Pd 394 387.292 395.146
Pd 395.5 388.219 392.719
Pd 397 389.146 390.292
Pd 398.5 390.073 387.865
Pd 407.5 386.365 402.427
Pd 406 387.292 404.854
Pd 404.5 388.219 407.281
Pd 403 389.146 409.708
Pd 401.5 390.073 412.135
Pd 407.5 386.365 397.573
Pd 406 387.292 395.146
Pd 404.5 388.219 392.719
Pd 403 389.146 390.292
Pd 401.5 390.073 387.865
Pd 392.5 413.635 402.427
Pd 394 412.708 404.854
Pd 395.5 411.781 407.281
Pd 397 410.854 409.708
Pd 398.5 409.927 412.135
Pd 392.5 413.635 397.573
Pd 394 412.708 395.146
Pd 395.5 411.781 392.719
Pd 397 410.854 390.292
Pd 398.5 409.927 387.865
Pd 400 406 385.438
Pd 400 403 385.438
Pd 400 400 385.438
Pd 400 397 385.438
Pd 400 394 385.438
Pd 400 394 414.562
Pd 400 397 414.562
Pd 400 400 414.562
Pd 400 403 414.562
Pd 400 406 414.562
Pd 413.635 402.427 404.5
Pd 413.635 402.427 401.5
Pd 412.708 404.854 403
Pd 413.635 402.427 398.5
Pd 412.708 404.854 400
Pd 411.781 407.281 401.5
Pd 413.635 402.427 395.5
Pd 412.708 404.854 397
Pd 411.781 407.281 398.5
Pd 410.854 409.708 400
Pd 411.208 403.927 408.427
Pd 410.281 406.354 406.927
Pd 408.781 405.427 409.354
Pd 409.354 408.781 405.427
Pd 407.854 407.854 407.854
Pd 406.354 406.927 410.281
Pd 408.427 411.208 403.927
Pd 406.927 410.281 406.354
Pd 405.427 409.354 408.781
Pd 403.927 408.427 411.208
Pd 409.708 400 410.854
Pd 407.281 401.5 411.781
Pd 407.281 398.5 411.781
Pd 404.854 403 412.708
Pd 404.854 400 412.708
Pd 404.854 397 412.708
Pd 402.427 404.5 413.635
Pd 402.427 401.5 413.635
Pd 402.427 398.5 413.635
Pd 402.427 395.5 413.635
Pd 411.208 396.073 408.427
Pd 408.781 394.573 409.354
Pd 410.281 393.646 406.927
Pd 406.354 393.073 410.281
Pd 407.854 392.146 407.854
Pd 409.354 391.219 405.427
Pd 403.927 391.573 411.208
Pd 405.427 390.646 408.781
Pd 406.927 389.719 406.354
Pd 408.427 388.792 403.927
Pd 413.635 397.573 404.5
Pd 413.635 397.573 401.5
Pd 412.708 395.146 403
Pd 413.635 397.573 398.5
Pd 412.708 395.146 400
Pd 411.781 392.719 401.5
Pd 413.635 397.573 395.5
Pd 412.708 395.146 397
Pd 411.781 392.719 398.5
Pd 410.854 390.292 400
Pd 388.792 403.927 391.573
Pd 389.719 406.354 393.073
Pd 391.219 405.427 390.646
Pd 390.646 408.781 394.573
Pd 392.146 407.854 392.146
Pd 393.646 406.927 389.719
Pd 391.573 411.208 396.073
Pd 393.073 410.281 393.646
Pd 394.573 409.354 391.219
Pd 396.073 408.427 388.792
Pd 386.365 402.427 395.5
Pd 387.292 404.854 397
Pd 386.365 402.427 398.5
Pd 388.219 407.281 398.5
Pd 387.292 404.854 400
Pd 386.365 402.427 401.5
Pd 389.146 409.708 400
Pd 388.219 407.281 401.5
Pd 387.292 404.854 403
Pd 386.365 402.427 404.5
Pd 386.365 397.573 395.5
Pd 386.365 397.573 398.5
Pd 387.292 395.146 397
Pd 386.365 397.573 401.5
Pd 387.292 395.146 400
Pd 388.219 392.719 398.5
Pd 386.365 397.573 404.5
Pd 387.292 395.146 403
Pd 388.219 392.719 401.5
Pd 389.146 390.292 400
Pd 388.792 396.073 391.573
Pd 391.219 394.573 390.646
Pd 389.719 393.646 393.073
Pd 393.646 393.073 389.719
Pd 392.146 392.146 392.146
Pd 390.646 391.219 394.573
Pd 396.073 391.573 388.792
Pd 394.573 390.646 391.219
Pd 393.073 389.719 393.646
Pd 391.573 388.792 396.073
Pd 390.292 400 389.146
Pd 392.719 401.5 388.219
Pd 392.719 398.5 388.219
Pd 395.146 403 387.292
Pd 395.146 400 387.292
Pd 395.146 397 387.292
Pd 397.573 404.5 386.365
Pd 397.573 401.5 386.365
Pd 397.573 398.5 386.365
Pd 397.573 395.5 386.365
Pd 411.208 403.927 391.573
Pd 410.281 406.354 393.073
Pd 408.781 405.427 390.646
Pd 409.354 408.781 394.573
Pd 407.854 407.854 392.146
Pd 406.354 406.927 389.719
Pd 408.427 411.208 396.073
Pd 406.927 410.281 393.646
Pd 405.427 409.354 391.219
Pd 403.927 408.427 388.792
Pd 409.708 400 389.146
Pd 407.281 401.5 388.219
Pd 407.281 398.5 388.219
Pd 404.854 403 387.292
Pd 404.854 400 387.292
Pd 404.854 397 387.292
Pd 402.427 404.5 386.365
Pd 402.427 401.5 386.365
Pd 402.427 398.5 386.365
Pd 402.427 395.5 386.365
Pd 411.208 396.073 391.573
Pd 410.281 393.646 393.073
Pd 408.781 394.573 390.646
Pd 409.354 391.219 394.573
Pd 407.854 392.146 392.146
Pd 406.354 393.073 389.719
Pd 408.427 388.792 396.073
Pd 406.927 389.719 393.646
Pd 405.427 390.646 391.219
Pd 403.927 391.573 388.792
Pd 388.792 396.073 408.427
Pd 391.219 394.573 409.354
Pd 389.719 393.646 406.927
Pd 393.646 393.073 410.281
Pd 392.146 392.146 407.854
Pd 390.646 391.219 405.427
Pd 396.073 391.573 411.208
Pd 394.573 390.646 408.781
Pd 393.073 389.719 406.354
Pd 391.573 388.792 403.927
Pd 390.292 400 410.854
Pd 392.719 401.5 411.781
Pd 392.719 398.5 411.781
Pd 395.146 403 412.708
Pd 395.146 400 412.708
Pd 395.146 397 412.708
Pd 397.573 404.5 413.635
Pd 397.573 401.5 413.635
Pd 397.573 398.5 413.635
Pd 397.573 395.5 413.635
Pd 388.792 403.927 408.427
Pd 389.719 406.354 406.927
Pd 391.219 405.427 409.354
Pd 390.646 408.781 405.427
Pd 392.146 407.854 407.854
Pd 393.646 406.927 410.281
Pd 391.573 411.208 403.927
Pd 393.073 410.281 406.354
Pd 394.573 409.354 408.781
Pd 396.073 408.427 411.208
Pd 404.5 413.635 397.573
Pd 401.5 413.635 397.573
Pd 403 412.708 395.146
Pd 398.5 413.635 397.573
Pd 400 412.708 395.146
Pd 401.5 411.781 392.719
Pd 395.5 413.635 397.573
Pd 397 412.708 395.146
Pd 398.5 411.781 392.719
Pd 400 410.854 390.292
Pd 404.5 413.635 402.427
Pd 401.5 413.635 402.427
Pd 403 412.708 404.854
Pd 398.5 413.635 402.427
Pd 400 412.708 404.854
Pd 401.5 411.781 407.281
Pd 395.5 413.635 402.427
Pd 397 412.708 404.854
Pd 398.5 411.781 407.281
Pd 400 410.854 409.708
Pd 395.5 386.365 402.427
Pd 397 387.292 404.854
Pd 398.5 386.365 402.427
Pd 398.5 388.219 407.281
Pd 400 387.292 404.854
Pd 401.5 386.365 402.427
Pd 400 389.146 409.708
Pd 401.5 388.219 407.281
Pd 403 387.292 404.854
Pd 404.5 386.365 402.427
Pd 395.5 386.365 397.573
Pd 398.5 386.365 397.573
Pd 397 387.292 395.146
Pd 401.5 386.365 397.573
Pd 400 387.292 395.146
Pd 398.5 388.219 392.719
Pd 404.5 386.365 397.573
Pd 403 387.292 395.146
Pd 401.5 388.219 392.719
Pd 400 389.146 390.292