1156
CSIRO Nanostructure Databank - Palladium Nanoparticle Data Set 
Pd 421.257 427.63 408.555
Pd 421.674 425.253 409.69
Pd 419.498 427.285 410.307
Pd 421.896 429.527 410.022
Pd 423.587 427.608 409.695
Pd 418.328 427.387 412.459
Pd 418.389 425.266 414.155
Pd 416.587 427.008 414.504
Pd 418.408 429.254 414.108
Pd 421.796 423.586 411.519
Pd 422.128 421.395 413.332
Pd 420.091 423.293 413.498
Pd 419.868 425.307 411.766
Pd 421.924 427.252 411.762
Pd 422.408 425.119 413.405
Pd 420.377 427.332 413.681
Pd 420.141 429.341 411.785
Pd 422.13 431.262 411.927
Pd 422.36 429.213 413.494
Pd 420.402 431.208 413.941
Pd 422.307 433.21 413.596
Pd 424.251 423.36 412.797
Pd 423.854 425.368 411.08
Pd 425.726 427.314 411.094
Pd 426.071 425.162 412.625
Pd 424.208 427.129 413.118
Pd 424.118 429.354 411.452
Pd 426.305 429.218 412.941
Pd 424.399 431.169 413.261
Pd 427.926 427.221 412.751
Pd 415.075 427.262 416.837
Pd 415.428 425.305 418.532
Pd 413.521 427.265 418.959
Pd 415.435 429.059 418.728
Pd 418.732 423.406 415.913
Pd 419.037 421.343 417.491
Pd 417.162 423.431 417.926
Pd 416.893 425.151 416.178
Pd 418.953 427.219 415.75
Pd 419.024 425.179 417.712
Pd 417.128 427.12 418.322
Pd 417.066 429.055 416.335
Pd 418.874 430.946 415.973
Pd 419.323 428.924 417.878
Pd 417.208 431.194 418.149
Pd 419.164 433.084 417.841
Pd 422.696 419.343 414.94
Pd 422.895 417.493 416.857
Pd 420.999 419.379 416.979
Pd 420.735 421.433 415.368
Pd 422.678 423.035 415.061
Pd 422.871 421.192 416.747
Pd 420.935 423.257 417.533
Pd 420.672 425.152 415.505
Pd 422.657 427.09 415.174
Pd 422.976 424.92 417.059
Pd 421.324 427.067 417.484
Pd 420.932 429.095 415.762
Pd 422.611 431.117 415.328
Pd 423.14 429.085 417.038
Pd 420.962 431.303 417.68
Pd 420.828 433.168 415.818
Pd 422.738 435.189 415.567
Pd 422.995 433.033 417.303
Pd 421.094 435.198 417.584
Pd 423.124 436.737 417.526
Pd 424.984 419.409 416.388
Pd 424.484 421.248 414.618
Pd 426.544 423.222 414.521
Pd 427.08 421.182 416.506
Pd 425.068 422.875 416.704
Pd 424.606 425.069 415.033
Pd 426.383 427.047 414.74
Pd 426.926 424.9 416.438
Pd 424.902 427.143 416.775
Pd 424.773 429.147 414.978
Pd 426.612 431.131 414.731
Pd 426.93 428.962 416.435
Pd 425.006 431.002 416.771
Pd 424.705 432.972 415.227
Pd 426.939 432.96 416.573
Pd 425.03 434.904 417.091
Pd 428.743 423.116 416.074
Pd 428.533 425.014 414.129
Pd 430.339 426.724 413.792
Pd 430.682 425.128 415.928
Pd 428.879 427.101 415.952
Pd 428.575 429.184 414.294
Pd 430.85 428.845 415.907
Pd 428.861 430.906 416.143
Pd 432.556 426.84 415.506
Pd 411.944 427.241 421.337
Pd 412.213 425.148 422.969
Pd 410.381 427.165 423.258
Pd 412.222 429.18 423.096
Pd 415.646 423.427 420.473
Pd 415.999 421.299 422.252
Pd 413.83 423.184 422.378
Pd 413.503 424.972 420.448
Pd 415.508 426.835 420.423
Pd 416.083 425.313 422.39
Pd 414.149 427.305 422.715
Pd 413.927 429.098 420.828
Pd 415.782 431.359 420.399
Pd 415.918 429.241 422.252
Pd 414.268 431.22 422.782
Pd 416.244 432.863 422.63
Pd 419.398 419.154 419.541
Pd 419.662 417.307 421.391
Pd 417.7 419.359 422.053
Pd 417.583 421.364 419.972
Pd 419.455 423.307 419.597
Pd 419.741 421.201 421.446
Pd 417.83 423.213 421.911
Pd 417.643 425.038 420.032
Pd 419.565 427.099 419.798
Pd 419.869 425.08 421.467
Pd 417.928 427.092 421.671
Pd 417.686 429.156 420.209
Pd 419.347 431.146 419.891
Pd 419.99 429.135 421.572
Pd 418.098 431.081 422.173
Pd 417.649 433.089 420.162
Pd 419.62 435.003 419.714
Pd 419.97 433.052 421.593
Pd 418.021 434.691 422.183
Pd 420.142 436.778 421.764
Pd 423.213 415.844 418.757
Pd 423.575 413.646 420.509
Pd 421.484 415.309 420.885
Pd 421.154 417.479 419.03
Pd 423.167 419.284 418.671
Pd 423.498 417.34 420.606
Pd 421.695 419.262 421.137
Pd 421.259 421.037 419.075
Pd 423.326 422.941 418.78
Pd 423.407 421.23 420.734
Pd 421.619 423.075 421.033
Pd 421.575 425.284 419.38
Pd 423.458 427.136 419.116
Pd 423.701 425.101 420.85
Pd 421.804 426.875 421.504
Pd 421.551 428.954 419.251
Pd 423.419 430.824 418.903
Pd 423.781 428.893 421.013
Pd 421.867 430.963 421.139
Pd 421.554 433.159 419.493
Pd 423.502 434.825 419.227
Pd 423.778 432.672 420.946
Pd 421.889 434.921 421.364
Pd 421.746 436.918 419.56
Pd 423.595 438.895 419.188
Pd 423.978 436.766 421.033
Pd 422.124 438.583 421.486
Pd 423.957 440.669 421.204
Pd 425.527 415.358 420.474
Pd 425.219 417.549 418.488
Pd 427.173 419.063 418.16
Pd 427.257 417.1 419.984
Pd 425.523 419.262 420.424
Pd 425.274 421.045 418.444
Pd 427.206 423.009 418.369
Pd 427.541 421.021 419.918
Pd 425.587 423.079 420.419
Pd 425.214 425.278 418.514
Pd 427.194 427.032 418.232
Pd 427.474 425.093 420.287
Pd 425.742 427.168 420.671
Pd 425.414 428.943 418.647
Pd 427.385 431.004 418.157
Pd 427.7 428.934 420.288
Pd 425.838 430.838 420.596
Pd 425.359 432.749 418.729
Pd 427.501 434.857 418.415
Pd 427.801 432.896 420.159
Pd 425.786 434.778 420.771
Pd 425.394 436.819 418.963
Pd 427.744 436.783 420.442
Pd 425.89 438.563 420.84
Pd 429.544 419.214 419.854
Pd 429.103 421.074 417.832
Pd 430.968 423.041 417.629
Pd 431.341 421.054 419.276
Pd 429.355 423.177 419.651
Pd 429.108 424.92 417.911
Pd 430.937 427.031 417.632
Pd 431.472 424.846 419.407
Pd 429.483 426.921 419.786
Pd 429.2 429.105 417.999
Pd 431.123 430.897 417.781
Pd 431.258 428.88 419.666
Pd 429.351 430.827 419.982
Pd 429.296 433.008 417.829
Pd 431.236 432.795 419.586
Pd 429.452 434.823 419.902
Pd 433.422 422.828 419
Pd 433.031 424.873 417.177
Pd 434.851 426.873 417.031
Pd 435.134 424.772 418.685
Pd 433.235 426.919 419.154
Pd 433.004 428.781 417.216
Pd 435.304 428.903 418.686
Pd 433.221 430.609 419.096
Pd 437.062 426.788 418.548
Pd 409.335 427.203 425.8
Pd 409.439 425.08 427.494
Pd 407.596 427.14 427.957
Pd 409.598 429.051 427.759
Pd 412.807 423.279 424.702
Pd 412.817 421.246 426.778
Pd 411.124 423.25 427.197
Pd 410.89 425.202 425.099
Pd 412.694 427.046 424.854
Pd 413.098 425.051 426.844
Pd 411.251 427.026 427.307
Pd 410.942 429.048 425.394
Pd 412.786 431.096 424.806
Pd 413.144 428.902 426.795
Pd 411.407 431.077 427.267
Pd 412.949 433.226 427.122
Pd 416.268 419.257 424.342
Pd 416.73 417.353 426.081
Pd 414.876 419.569 426.348
Pd 414.281 421.128 424.512
Pd 416.126 423.032 424.01
Pd 416.564 421.454 426.01
Pd 414.979 423.122 426.393
Pd 414.466 425.174 424.383
Pd 416.6 427.24 424.235
Pd 416.773 425.133 426.042
Pd 414.952 427.063 426.427
Pd 414.533 429.218 424.481
Pd 416.587 431.019 424.367
Pd 416.958 429.069 426.035
Pd 414.824 431.12 426.708
Pd 414.623 433.199 424.864
Pd 416.526 434.979 424.396
Pd 416.908 433.045 426.366
Pd 415.178 434.991 426.802
Pd 417.121 436.791 426.324
Pd 419.935 415.173 422.965
Pd 420.192 413.082 424.926
Pd 418.843 415.266 425.279
Pd 418.458 417.546 423.883
Pd 420.224 419.325 423.32
Pd 420.538 417.337 425.156
Pd 418.36 419.602 425.817
Pd 418.297 421.355 423.754
Pd 420.149 423.393 423.398
Pd 420.311 421.182 425.256
Pd 418.621 423.194 425.653
Pd 418.388 425.23 423.93
Pd 420.214 427.036 423.515
Pd 420.626 425.135 425.399
Pd 418.714 427.057 425.732
Pd 418.278 429.131 423.758
Pd 420.359 430.841 423.56
Pd 420.705 428.929 425.35
Pd 418.711 430.967 425.903
Pd 418.632 432.847 424.026
Pd 420.485 434.942 423.616
Pd 420.879 432.822 425.78
Pd 418.832 434.701 425.97
Pd 418.554 436.626 423.838
Pd 420.477 438.587 423.696
Pd 420.672 436.602 425.616
Pd 418.94 438.59 426.017
Pd 420.778 440.621 425.811
Pd 424.161 411.572 422.556
Pd 424.391 409.425 424.198
Pd 422.35 411.449 424.602
Pd 421.64 413.3 422.705
Pd 423.772 415.3 422.473
Pd 424.124 413.479 424.313
Pd 422.063 415.219 424.685
Pd 421.786 417.212 422.794
Pd 424.018 419.364 422.693
Pd 424.012 417.025 424.383
Pd 422.368 419.149 424.912
Pd 421.938 421.302 422.972
Pd 423.795 423.16 422.62
Pd 424.247 421.167 424.649
Pd 422.371 423.215 424.916
Pd 422.199 425.142 423.165
Pd 424.187 426.876 422.854
Pd 424.46 424.879 424.704
Pd 422.515 426.965 425.102
Pd 422.393 428.994 423.214
Pd 424.28 430.803 422.8
Pd 424.632 428.856 424.83
Pd 422.685 430.846 425.027
Pd 422.141 432.809 423.199
Pd 424.211 434.448 422.939
Pd 424.496 432.726 424.907
Pd 422.677 434.623 425.378
Pd 422.447 436.783 423.354
Pd 424.262 438.856 423.105
Pd 424.482 436.743 424.744
Pd 422.671 438.429 425.167
Pd 422.323 440.564 423.604
Pd 424.084 442.479 422.923
Pd 424.627 440.769 424.851
Pd 422.749 442.529 425.55
Pd 424.765 444.216 425.145
Pd 426.205 411.559 424.143
Pd 425.986 413.481 422.039
Pd 427.75 415.407 421.912
Pd 428.003 413.459 423.808
Pd 426.057 415.341 423.949
Pd 425.666 417.294 422.232
Pd 427.689 418.999 421.875
Pd 428.114 417.209 423.729
Pd 426.274 419.166 424.25
Pd 425.874 421.188 422.122
Pd 427.955 422.961 422.226
Pd 428.242 420.87 423.686
Pd 426.137 422.977 424.369
Pd 425.849 424.862 422.345
Pd 428.038 427.084 422.22
Pd 428.208 424.855 423.945
Pd 426.415 426.783 424.407
Pd 426.062 428.856 422.568
Pd 428.063 430.894 422.318
Pd 428.391 428.916 424.154
Pd 426.476 430.867 424.624
Pd 426.149 432.651 422.475
Pd 428.017 434.762 422.188
Pd 428.331 432.768 424.211
Pd 426.385 434.669 424.527
Pd 426.079 436.726 422.662
Pd 428.085 438.406 422.39
Pd 428.417 436.476 424.331
Pd 426.359 438.64 424.461
Pd 426.193 440.602 422.676
Pd 428.35 440.27 424.115
Pd 426.736 442.537 424.638
Pd 430.204 415.377 423.611
Pd 429.776 417.206 421.588
Pd 431.726 419.093 420.992
Pd 432.17 417.159 423.036
Pd 430.182 419.084 423.303
Pd 429.817 421.029 421.558
Pd 431.685 422.95 421.259
Pd 432.097 420.958 423.007
Pd 430.293 423.114 423.465
Pd 429.856 425.045 421.648
Pd 431.599 426.905 421.468
Pd 432.206 424.975 423.092
Pd 430.148 426.81 423.791
Pd 429.804 428.938 421.822
Pd 431.723 430.741 421.23
Pd 432.227 428.614 423.386
Pd 430.425 430.87 423.941
Pd 429.831 432.707 421.838
Pd 431.732 434.576 421.649
Pd 432.179 432.65 423.176
Pd 430.388 434.68 423.809
Pd 430.101 436.513 421.906
Pd 432.344 436.617 423.529
Pd 430.307 438.414 423.656
Pd 434.047 419.058 422.57
Pd 433.623 421.031 420.821
Pd 435.653 422.911 420.468
Pd 435.874 420.954 422.403
Pd 434.042 422.927 422.888
Pd 433.83 424.888 420.866
Pd 435.592 426.9 420.621
Pd 436.04 424.847 422.57
Pd 434.045 426.65 422.972
Pd 433.56 428.924 421.058
Pd 435.422 430.943 420.745
Pd 435.769 428.867 422.648
Pd 434.032 430.791 422.991
Pd 433.531 432.601 421.093
Pd 435.847 432.564 422.794
Pd 434.125 434.708 423.062
Pd 437.727 422.767 422.108
Pd 437.436 424.813 420.349
Pd 439.151 426.857 420.025
Pd 439.532 424.9 421.959
Pd 437.893 427.011 422.297
Pd 437.226 428.838 420.315
Pd 439.693 428.752 421.893
Pd 437.654 430.709 422.581
Pd 441.302 426.711 421.508
Pd 406.073 427.112 430.406
Pd 406.364 425.275 432.117
Pd 404.826 427.067 432.689
Pd 406.572 429.022 432.157
Pd 409.705 423.288 429.634
Pd 409.901 421.29 431.286
Pd 408.49 423.41 431.971
Pd 407.887 425.209 429.892
Pd 409.874 427.034 429.4
Pd 410.163 425.201 431.495
Pd 408.232 427.012 431.729
Pd 407.98 428.861 429.985
Pd 410.046 431.022 429.614
Pd 410.196 428.943 431.518
Pd 408.679 430.772 431.959
Pd 410.51 432.772 431.474
Pd 413.182 419.327 428.669
Pd 413.456 417.428 430.668
Pd 411.851 419.304 431.116
Pd 411.537 421.296 429.117
Pd 413.374 423.246 428.871
Pd 413.577 421.116 430.573
Pd 411.782 423.058 431.15
Pd 411.51 425.081 429.106
Pd 413.599 426.901 428.883
Pd 413.815 424.907 430.752
Pd 412.026 427.056 430.891
Pd 411.782 429.185 429.057
Pd 413.483 431.068 428.872
Pd 413.789 428.971 430.874
Pd 412.125 430.961 431.18
Pd 411.908 432.965 429.446
Pd 413.675 435.056 429.053
Pd 413.973 432.89 430.908
Pd 412.159 434.774 431.401
Pd 413.922 436.735 431.327
Pd 417.021 415.444 427.782
Pd 417.253 413.519 429.713
Pd 415.342 415.588 429.958
Pd 415.054 417.36 428.025
Pd 416.94 419.309 427.879
Pd 417.365 417.235 429.759
Pd 415.426 419.046 430.122
Pd 415.166 421.119 428.249
Pd 417.295 423.095 428.032
Pd 417.493 421.036 429.795
Pd 415.725 422.881 430.229
Pd 415.296 424.915 428.437
Pd 417.179 426.993 428.014
Pd 417.523 425.104 430.039
Pd 416 427.259 430.495
Pd 415.406 428.961 428.408
Pd 417.175 430.916 428.062
Pd 417.764 428.886 430.072
Pd 415.723 430.754 430.517
Pd 415.403 433.067 428.77
Pd 417.399 434.849 428.329
Pd 417.59 432.727 430.262
Pd 415.876 434.889 430.659
Pd 415.579 436.676 428.822
Pd 417.129 438.57 428.483
Pd 417.974 436.583 430.29
Pd 416.079 438.598 430.785
Pd 417.867 440.713 430.318
Pd 420.796 411.649 426.916
Pd 421.018 409.606 428.44
Pd 419.067 411.617 428.959
Pd 418.672 413.309 427.253
Pd 420.801 415.196 427.177
Pd 421.133 413.223 429.064
Pd 419.146 415.273 429.383
Pd 418.864 417.169 427.274
Pd 420.753 419.212 427.123
Pd 421.063 417.183 429.021
Pd 419.093 419.039 429.506
Pd 419.062 421.172 427.78
Pd 420.855 423.031 427.313
Pd 421.332 421.077 429.131
Pd 419.538 423.077 429.621
Pd 419.095 425.15 427.694
Pd 421.038 426.971 427.412
Pd 421.509 424.963 429.41
Pd 419.414 426.88 429.676
Pd 419.125 428.885 427.804
Pd 421.024 430.728 427.371
Pd 421.499 428.646 429.402
Pd 419.464 430.69 429.716
Pd 419.098 432.88 428.075
Pd 421.09 434.588 427.858
Pd 421.649 432.618 429.409
Pd 419.677 434.582 429.973
Pd 419.324 436.671 428.003
Pd 421.212 438.549 427.488
Pd 421.578 436.856 429.499
Pd 419.428 438.736 429.837
Pd 419.312 440.318 427.955
Pd 421.003 442.504 427.556
Pd 421.512 440.617 429.446
Pd 419.73 442.324 429.748
Pd 421.513 444.153 429.509
Pd 424.585 407.855 426.108
Pd 424.815 406.107 427.716
Pd 423.011 407.727 428.285
Pd 422.503 409.502 426.374
Pd 424.424 411.393 426.135
Pd 424.946 409.502 428.098
Pd 422.969 411.312 428.587
Pd 422.568 413.279 426.627
Pd 424.501 415.294 426.341
Pd 424.852 413.279 428.04
Pd 422.954 415.113 428.758
Pd 422.513 417.177 426.789
Pd 424.555 419.008 426.127
Pd 424.84 417.238 428.134
Pd 423.085 419.177 428.697
Pd 422.785 421.124 426.868
Pd 424.529 423.003 426.558
Pd 425.171 420.874 428.095
Pd 423.238 423.031 428.961
Pd 422.791 424.945 427.055
Pd 424.953 426.718 426.717
Pd 425.143 424.683 428.407
Pd 423.495 426.832 428.937
Pd 422.854 428.953 427.088
Pd 424.936 430.826 426.894
Pd 425.382 428.661 428.595
Pd 423.387 430.684 429.02
Pd 423.115 432.605 427.269
Pd 424.917 434.575 426.736
Pd 425.534 432.728 428.704
Pd 423.418 434.818 429.053
Pd 422.961 436.606 427.102
Pd 425.003 438.537 426.701
Pd 425.249 436.529 428.64
Pd 423.577 438.619 429.092
Pd 423.01 440.424 427.076
Pd 425.184 442.416 427.046
Pd 425.336 440.289 428.776
Pd 423.434 442.405 429.322
Pd 423.12 444.32 427.587
Pd 425.136 445.942 426.958
Pd 425.559 444.295 428.945
Pd 423.532 446.014 429.317
Pd 425.795 447.42 428.883
Pd 426.755 407.782 427.931
Pd 426.535 409.579 425.972
Pd 428.463 411.547 425.435
Pd 428.684 409.488 427.46
Pd 426.796 411.49 427.651
Pd 426.491 413.459 425.768
Pd 428.459 415.418 425.629
Pd 428.711 413.483 427.571
Pd 426.766 415.25 427.863
Pd 426.394 417.096 426.116
Pd 428.586 418.935 425.521
Pd 428.989 417.123 427.622
Pd 426.965 419.034 427.919
Pd 426.669 420.941 426.101
Pd 428.489 422.866 425.753
Pd 429.1 420.704 427.585
Pd 427.147 422.893 428.091
Pd 426.717 424.788 426.309
Pd 428.575 426.762 425.928
Pd 429.127 424.719 427.704
Pd 427.059 426.563 428.29
Pd 426.981 428.882 426.245
Pd 428.81 430.715 426.145
Pd 428.949 428.429 428.196
Pd 427.37 430.624 428.243
Pd 426.723 432.665 426.507
Pd 428.738 434.655 426.219
Pd 429.286 432.645 428.012
Pd 427.318 434.696 428.47
Pd 426.789 436.701 426.301
Pd 428.733 438.435 425.935
Pd 429.114 436.66 428.009
Pd 427.247 438.437 428.585
Pd 426.923 440.366 426.539
Pd 428.888 442.085 425.923
Pd 429.253 440.467 427.946
Pd 427.413 442.296 428.443
Pd 427.145 444.311 426.541
Pd 429.222 444.115 427.994
Pd 427.632 445.885 428.584
Pd 430.495 411.458 427.257
Pd 430.331 413.458 425.286
Pd 432.468 414.901 424.894
Pd 432.62 412.999 426.895
Pd 430.828 415.245 427.146
Pd 430.575 417.153 425.213
Pd 432.448 419.063 424.714
Pd 432.672 417.114 426.932
Pd 430.987 419.091 427.049
Pd 430.439 421.038 425.155
Pd 432.427 422.779 424.985
Pd 432.853 420.863 426.944
Pd 430.825 422.654 427.252
Pd 430.582 424.88 425.376
Pd 432.486 426.684 425.249
Pd 432.927 424.7 427.305
Pd 430.998 426.6 427.668
Pd 430.492 428.6 425.724
Pd 432.482 430.653 425.369
Pd 432.694 428.601 427.192
Pd 430.855 430.555 427.59
Pd 430.667 432.748 425.714
Pd 432.651 434.718 425.319
Pd 432.916 432.615 427.333
Pd 431.072 434.68 427.598
Pd 430.653 436.624 425.702
Pd 432.474 438.51 425.426
Pd 432.943 436.428 427.363
Pd 431.143 438.569 427.654
Pd 430.763 440.244 425.695
Pd 432.899 440.428 427.357
Pd 431.063 442.222 427.59
Pd 434.219 415.258 426.79
Pd 434.273 417.199 424.697
Pd 436.137 419 424.199
Pd 436.509 416.897 426.191
Pd 434.895 418.869 426.602
Pd 434.431 420.845 424.601
Pd 436.332 422.79 424.528
Pd 436.626 420.866 426.352
Pd 434.774 422.792 426.737
Pd 434.254 424.727 424.98
Pd 436.348 426.772 424.593
Pd 436.659 424.752 426.315
Pd 434.587 426.749 426.979
Pd 434.301 428.647 424.891
Pd 436.164 430.713 424.683
Pd 436.454 428.66 426.321
Pd 434.595 430.637 426.879
Pd 434.257 432.582 425.022
Pd 436.267 434.552 424.888
Pd 436.528 432.668 426.616
Pd 434.933 434.561 427.075
Pd 434.341 436.764 425.167
Pd 436.594 436.49 426.676
Pd 434.712 438.297 427.227
Pd 438.205 418.987 426.03
Pd 438.128 420.856 424.133
Pd 439.868 422.977 423.801
Pd 440.247 420.857 425.727
Pd 438.473 422.63 426.156
Pd 438.362 424.773 424.305
Pd 440.062 426.824 423.801
Pd 440.419 424.831 425.716
Pd 438.458 426.662 426.073
Pd 438.207 428.69 424.15
Pd 440.099 430.6 424.042
Pd 440.534 428.738 425.826
Pd 438.247 430.599 426.101
Pd 437.818 432.751 424.121
Pd 439.858 432.399 425.831
Pd 438.468 434.593 426.329
Pd 442.003 422.863 425.234
Pd 441.822 424.819 423.536
Pd 443.522 426.98 423.095
Pd 444.157 424.814 425.279
Pd 442.373 426.783 425.36
Pd 441.783 428.744 423.258
Pd 443.557 429.113 425.032
Pd 442.076 430.789 425.855
Pd 445.188 427.265 424.916
Pd 406.891 426.994 434.035
Pd 410.551 423.247 433.541
Pd 408.688 425.292 433.763
Pd 410.645 427.064 433.598
Pd 410.863 425.174 435.488
Pd 409.237 427.062 435.864
Pd 408.935 428.9 433.667
Pd 410.813 430.94 433.601
Pd 411.155 429.014 435.689
Pd 414.079 419.177 432.467
Pd 412.241 421.12 433.032
Pd 414.168 422.935 432.611
Pd 414.333 420.908 434.377
Pd 412.867 423.34 434.902
Pd 412.384 425.042 432.876
Pd 414.193 427.04 432.745
Pd 414.826 424.961 434.565
Pd 412.841 426.862 435.102
Pd 412.411 428.895 433.182
Pd 414.275 430.845 432.733
Pd 414.668 428.845 434.915
Pd 413.037 430.757 435.366
Pd 412.55 432.872 433.247
Pd 414.476 434.907 432.98
Pd 414.675 432.64 434.768
Pd 417.552 415.243 431.588
Pd 416.005 417.166 432.129
Pd 417.666 419.195 431.671
Pd 417.968 417.183 433.789
Pd 416.08 419.021 434.149
Pd 415.861 421.155 432.155
Pd 417.711 422.963 431.904
Pd 418.003 420.801 433.754
Pd 416.446 422.836 434.332
Pd 416.067 424.985 432.227
Pd 417.942 427.073 432.162
Pd 418.448 424.994 433.83
Pd 416.464 427.045 434.281
Pd 415.967 428.998 432.438
Pd 417.916 430.684 432.081
Pd 418.496 428.88 433.978
Pd 416.445 430.749 434.466
Pd 416.158 432.761 432.507
Pd 418.052 434.858 432.266
Pd 418.418 432.835 433.99
Pd 416.723 434.652 434.684
Pd 416.27 436.847 432.661
Pd 418.194 438.338 432.212
Pd 418.582 436.51 434.276
Pd 421.24 411.115 430.561
Pd 419.777 413.137 431.232
Pd 421.53 415.343 431.013
Pd 421.757 413.253 432.901
Pd 419.896 415.066 433.281
Pd 419.381 417.217 431.515
Pd 421.599 418.867 430.934
Pd 421.8 417.154 433.014
Pd 420.017 418.962 433.277
Pd 419.908 420.869 431.457
Pd 421.681 422.857 431.316
Pd 422.068 420.924 433.199
Pd 419.995 422.835 433.369
Pd 419.914 425.059 431.658
Pd 422.005 426.727 431.247
Pd 422.111 424.692 433.138
Pd 420.388 426.887 433.55
Pd 419.852 428.902 431.649
Pd 421.857 430.688 431.138
Pd 422.274 428.821 432.881
Pd 420.567 430.647 433.543
Pd 419.813 432.609 431.63
Pd 422.047 434.692 431.389
Pd 422.38 432.655 433.074
Pd 420.587 434.613 433.635
Pd 420.018 436.509 432.018
Pd 421.837 438.401 431.379
Pd 422.483 436.719 433.275
Pd 420.582 438.559 433.684
Pd 420.018 440.441 431.883
Pd 421.649 442.444 431.41
Pd 422.254 440.673 433.427
Pd 425.188 407.418 429.941
Pd 423.342 409.441 430.496
Pd 425.207 411.465 430.028
Pd 425.676 409.756 431.86
Pd 423.532 411.405 432.316
Pd 423.086 413.047 430.563
Pd 425.196 415.165 430.137
Pd 425.599 413.222 431.991
Pd 423.75 415.384 432.357
Pd 423.375 417.163 430.409
Pd 425.447 419.212 430.19
Pd 425.807 416.995 432.275
Pd 424.003 418.929 432.632
Pd 423.479 420.895 430.647
Pd 425.696 422.719 430.474
Pd 425.756 420.856 432.45
Pd 424.082 422.644 432.752
Pd 423.911 424.925 430.895
Pd 425.788 426.686 430.435
Pd 426.017 424.652 432.562
Pd 424.041 426.613 432.742
Pd 423.887 428.598 430.789
Pd 425.513 430.694 430.589
Pd 425.926 428.569 432.501
Pd 424.161 430.72 432.897
Pd 423.869 432.809 430.836
Pd 425.756 434.735 430.549
Pd 426.17 432.8 432.408
Pd 424.322 434.684 433.019
Pd 423.783 436.656 431.082
Pd 425.68 438.697 430.863
Pd 426.064 436.714 432.705
Pd 424.206 438.524 433.182
Pd 423.737 440.513 431.322
Pd 425.72 442.322 430.608
Pd 426.021 440.627 432.598
Pd 424.115 442.466 432.979
Pd 423.847 444.116 431.152
Pd 425.841 445.879 431.091
Pd 426.2 444.076 432.798
Pd 427.015 409.538 429.66
Pd 429.105 411.448 429.364
Pd 427.539 411.388 431.648
Pd 427.073 413.321 429.621
Pd 429.134 415.115 429.578
Pd 429.388 413.197 431.36
Pd 427.528 414.933 431.515
Pd 427.104 417.125 429.904
Pd 429.241 418.996 429.593
Pd 429.746 417.083 431.563
Pd 427.597 418.708 431.98
Pd 427.509 420.782 430.009
Pd 429.348 422.6 429.532
Pd 429.836 420.519 431.675
Pd 427.911 422.635 431.969
Pd 427.525 424.751 430.259
Pd 429.454 426.637 429.986
Pd 429.723 424.583 431.855
Pd 427.92 426.616 432.094
Pd 427.473 428.851 430.456
Pd 429.667 430.597 429.973
Pd 429.973 428.687 431.845
Pd 427.765 430.712 432.229
Pd 427.81 432.669 430.441
Pd 429.442 434.659 430.007
Pd 429.907 432.538 431.856
Pd 428.044 434.8 432.117
Pd 427.705 436.663 430.234
Pd 429.756 438.489 429.999
Pd 429.998 436.689 431.956
Pd 427.992 438.73 432.401
Pd 427.852 440.428 430.545
Pd 429.683 442.272 429.922
Pd 429.97 440.528 432.061
Pd 428.257 442.413 432.51
Pd 427.754 444.158 430.519
Pd 430.969 413.255 429.019
Pd 432.929 414.866 428.909
Pd 431.24 415.164 430.994
Pd 431.147 417.125 429.059
Pd 433.283 418.965 428.676
Pd 433.346 416.961 430.569
Pd 431.699 418.736 431.018
Pd 431.166 420.701 429.232
Pd 433.044 422.672 428.96
Pd 433.566 420.781 430.743
Pd 431.465 422.596 431.237
Pd 431.362 424.569 429.386
Pd 433.089 426.461 429.274
Pd 433.485 424.582 431.043
Pd 431.737 426.421 431.69
Pd 431.384 428.423 429.576
Pd 433.055 430.616 429.251
Pd 433.75 428.578 431.033
Pd 431.831 430.531 431.525
Pd 431.328 432.651 429.572
Pd 433.354 434.466 429.31
Pd 433.691 432.553 431.323
Pd 431.722 434.416 431.773
Pd 431.423 436.362 429.464
Pd 433.162 438.458 429.235
Pd 433.393 436.46 431.004
Pd 432.04 438.555 431.438
Pd 431.511 440.507 429.703
Pd 435.003 416.778 428.429
Pd 437.044 418.656 428.395
Pd 435.288 418.613 430.49
Pd 435.128 420.756 428.596
Pd 437.064 422.764 428.408
Pd 437.027 420.588 430.305
Pd 435.329 422.737 430.602
Pd 435.134 424.642 428.794
Pd 436.942 426.63 428.315
Pd 437.331 424.698 430.345
Pd 435.42 426.535 430.716
Pd 435.025 428.54 428.667
Pd 436.86 430.559 428.473
Pd 437.171 428.546 430.148
Pd 435.382 430.641 430.673
Pd 435.143 432.588 428.896
Pd 437.021 434.521 428.548
Pd 437.348 432.554 430.422
Pd 435.437 434.588 430.755
Pd 435.118 436.299 428.976
Pd 438.776 420.633 428.014
Pd 440.526 422.804 427.637
Pd 439.066 422.481 429.92
Pd 438.806 424.71 428.068
Pd 440.716 426.765 427.637
Pd 441.008 424.591 429.574
Pd 439.245 426.8 429.733
Pd 438.719 428.55 428.025
Pd 440.662 430.682 427.896
Pd 441.156 428.502 429.615
Pd 439.026 430.315 430.102
Pd 438.818 432.418 428.089
Pd 442.658 424.502 427.387
Pd 444.207 426.654 427.147
Pd 442.779 426.451 429.405
Pd 442.641 428.547 427.58
Pd 411.536 426.886 437.275
Pd 415.129 423.07 436.451
Pd 413.362 424.898 437.064
Pd 415.143 426.717 436.536
Pd 415.51 424.758 438.47
Pd 413.593 426.62 439.024
Pd 413.444 428.661 437.254
Pd 415.094 430.883 436.896
Pd 415.447 428.606 438.741
Pd 418.424 418.814 435.646
Pd 416.661 420.707 436.071
Pd 418.714 422.681 435.686
Pd 418.856 420.758 437.898
Pd 417.126 422.718 438.082
Pd 417.067 424.697 436.245
Pd 418.61 426.92 435.725
Pd 419.025 424.715 437.703
Pd 417.199 426.777 438.107
Pd 416.771 429.026 436.41
Pd 418.889 430.757 435.858
Pd 419.113 428.565 437.871
Pd 417.308 430.718 438.245
Pd 416.98 432.602 436.203
Pd 418.857 434.712 436.182
Pd 419.066 432.633 437.803
Pd 422.451 415.077 434.805
Pd 420.463 416.997 435.109
Pd 422.314 418.978 435.047
Pd 422.51 416.802 436.852
Pd 420.81 418.765 437.217
Pd 420.251 420.616 435.434
Pd 422.377 422.868 434.962
Pd 422.668 420.911 436.927
Pd 420.831 422.662 437.345
Pd 420.523 424.805 435.47
Pd 422.465 426.704 434.908
Pd 422.705 424.668 436.934
Pd 421.034 426.855 437.184
Pd 420.76 428.653 435.327
Pd 422.559 430.87 435.188
Pd 422.958 428.711 436.927
Pd 420.915 430.399 437.271
Pd 420.666 432.622 435.549
Pd 422.729 434.859 435.165
Pd 422.951 432.776 436.97
Pd 421.014 434.614 437.206
Pd 420.836 436.648 435.35
Pd 422.691 438.887 435.399
Pd 423.086 436.539 437.181
Pd 425.984 411.507 433.92
Pd 424.181 413.295 434.336
Pd 426.062 414.981 434.002
Pd 426.576 413.177 435.987
Pd 424.458 414.909 436.338
Pd 424.271 416.835 434.605
Pd 426.223 418.833 434.412
Pd 426.439 416.671 436.109
Pd 424.453 418.544 436.478
Pd 424.396 420.661 434.786
Pd 426.268 422.711 434.388
Pd 426.783 420.748 436.079
Pd 424.676 422.644 436.612
Pd 424.392 424.708 434.74
Pd 426.377 426.598 434.309
Pd 426.826 424.602 436.275
Pd 424.58 426.616 436.479
Pd 424.29 428.78 434.612
Pd 426.398 430.614 434.438
Pd 426.676 428.671 436.172
Pd 425.002 430.578 436.765
Pd 424.509 432.6 434.795
Pd 426.593 434.637 434.363
Pd 426.828 432.521 436.181
Pd 424.975 434.666 436.738
Pd 424.667 436.5 434.998
Pd 426.549 438.58 434.702
Pd 426.867 436.41 436.259
Pd 424.882 438.405 436.637
Pd 424.477 440.538 434.902
Pd 426.432 442.051 434.586
Pd 426.716 440.409 436.452
Pd 427.884 413.318 433.76
Pd 429.866 415.026 433.34
Pd 428.594 414.946 435.566
Pd 428.001 416.754 433.818
Pd 430.213 418.688 433.634
Pd 430.412 416.78 435.203
Pd 428.858 418.83 435.62
Pd 428.355 420.578 433.96
Pd 430.303 422.628 433.522
Pd 430.593 420.733 435.47
Pd 428.704 422.633 435.641
Pd 428.445 424.565 434.085
Pd 430.139 426.663 433.626
Pd 430.679 424.589 435.71
Pd 428.717 426.558 435.901
Pd 428.138 428.54 433.922
Pd 430.22 430.612 433.73
Pd 430.436 428.785 435.503
Pd 428.645 430.52 435.872
Pd 428.364 432.659 434.151
Pd 430.197 434.728 433.852
Pd 430.538 432.398 435.646
Pd 428.776 434.563 435.919
Pd 428.438 436.631 434.085
Pd 430.359 438.346 434.039
Pd 430.716 436.318 435.841
Pd 428.744 438.455 436.269
Pd 428.4 440.344 434.301
Pd 432.061 417.005 432.856
Pd 433.801 418.824 432.561
Pd 432.32 418.789 434.942
Pd 432.086 420.709 432.948
Pd 434.001 422.622 432.78
Pd 434.422 420.535 434.519
Pd 432.506 422.602 435.122
Pd 432.142 424.417 433.252
Pd 433.891 426.391 432.902
Pd 434.426 424.561 434.785
Pd 432.408 426.612 435.264
Pd 432.307 428.412 433.339
Pd 434.058 430.572 432.934
Pd 434.35 428.385 434.918
Pd 432.556 430.571 435.226
Pd 432.252 432.445 433.598
Pd 434.072 434.402 433.064
Pd 434.521 432.304 434.962
Pd 432.578 434.424 435.414
Pd 432.23 436.566 433.343
Pd 435.877 420.794 432.302
Pd 437.754 422.773 432.119
Pd 436.244 422.667 434.178
Pd 435.837 424.694 432.622
Pd 438.094 426.638 432.313
Pd 438.39 424.384 434.256
Pd 436.474 426.582 434.628
Pd 435.942 428.309 432.664
Pd 437.581 430.511 432.186
Pd 438.361 428.487 434.137
Pd 436.245 430.357 434.481
Pd 435.926 432.397 432.663
Pd 439.47 424.483 431.787
Pd 441.112 426.616 431.385
Pd 439.974 426.451 433.897
Pd 439.717 428.686 431.844
Pd 415.909 426.73 440.441
Pd 419.414 422.791 439.523
Pd 417.598 424.805 439.796
Pd 419.472 426.692 439.605
Pd 419.737 424.778 441.491
Pd 418.156 426.705 441.912
Pd 417.673 428.571 439.95
Pd 419.744 430.713 439.627
Pd 419.727 428.798 441.254
Pd 423.081 418.753 438.594
Pd 421.181 420.834 439.266
Pd 423.096 422.751 438.888
Pd 423.279 420.601 440.626
Pd 421.537 422.817 441.032
Pd 421.18 424.695 439.193
Pd 423.227 426.743 438.845
Pd 423.273 424.747 440.792
Pd 421.415 426.816 441.229
Pd 421.516 428.675 439.149
Pd 423.286 430.672 438.846
Pd 423.704 428.615 440.605
Pd 421.767 430.734 441.112
Pd 421.435 432.562 438.985
Pd 423.303 434.424 438.734
Pd 423.622 432.43 440.794
Pd 426.87 414.811 437.837
Pd 424.879 416.47 438.163
Pd 426.905 418.747 437.818
Pd 427.212 416.859 439.404
Pd 425.215 418.708 439.925
Pd 425.047 420.616 438.286
Pd 427.192 422.563 438.096
Pd 427.217 420.623 439.606
Pd 425.415 422.71 440.091
Pd 425.227 424.675 438.482
Pd 426.984 426.61 437.938
Pd 427.482 424.689 439.897
Pd 425.466 426.57 440.252
Pd 425.187 428.521 438.471
Pd 427.194 430.715 438.232
Pd 427.415 428.508 440.125
Pd 425.498 430.504 440.514
Pd 425.233 432.564 438.585
Pd 427.177 434.58 438.299
Pd 427.4 432.522 439.993
Pd 425.587 434.593 440.67
Pd 425.261 436.503 438.734
Pd 426.986 438.159 438.184
Pd 427.578 436.493 440.262
Pd 428.853 416.926 437.235
Pd 430.839 418.805 437.366
Pd 429.305 418.676 439.5
Pd 429.01 420.568 437.715
Pd 430.902 422.533 437.696
Pd 431.391 420.539 439.36
Pd 429.321 422.511 439.918
Pd 429.094 424.519 437.599
Pd 430.976 426.534 437.502
Pd 431.24 424.534 439.276
Pd 429.352 426.489 439.488
Pd 428.753 428.507 437.73
Pd 430.897 430.584 437.529
Pd 431.059 428.555 439.193
Pd 429.51 430.735 439.798
Pd 429.124 432.644 437.89
Pd 430.961 434.395 437.683
Pd 431.528 432.583 439.503
Pd 429.514 434.215 439.804
Pd 429.045 436.287 437.893
Pd 432.786 420.579 437.087
Pd 434.874 422.532 436.646
Pd 433.329 422.49 438.986
Pd 432.87 424.456 437.182
Pd 434.731 426.471 436.723
Pd 435.123 424.622 438.589
Pd 433.281 426.504 438.94
Pd 432.874 428.639 437.141
Pd 434.879 430.407 436.788
Pd 435.125 428.298 438.344
Pd 433.251 430.541 438.951
Pd 432.746 432.359 437.033
Pd 436.591 424.554 436.213
Pd 438.673 426.664 435.922
Pd 436.917 426.367 437.987
Pd 436.77 428.573 436.218
Pd 420.258 426.898 443.533
Pd 423.881 422.806 442.289
Pd 421.907 424.731 442.927
Pd 423.787 426.654 442.447
Pd 424.184 424.57 444.288
Pd 422.409 426.49 444.719
Pd 422.173 428.669 443.04
Pd 424.057 430.532 442.792
Pd 424.304 428.473 444.339
Pd 427.534 418.677 441.384
Pd 425.798 420.671 441.792
Pd 427.538 422.594 441.767
Pd 427.819 420.748 443.421
Pd 425.996 422.68 444.01
Pd 425.682 424.621 442.045
Pd 427.805 426.515 441.758
Pd 428.098 424.472 443.573
Pd 426.139 426.386 443.881
Pd 425.829 428.567 442.288
Pd 427.679 430.606 441.927
Pd 428.085 428.643 443.685
Pd 426.276 430.481 444.204
Pd 426.002 432.582 442.258
Pd 427.825 434.39 441.676
Pd 428.093 432.339 443.732
Pd 429.529 420.449 441.468
Pd 431.544 422.298 441.072
Pd 430.002 422.572 443.23
Pd 429.785 424.418 441.5
Pd 431.543 426.601 440.979
Pd 431.771 424.683 442.941
Pd 430.086 426.73 443.156
Pd 429.759 428.628 441.539
Pd 431.743 430.428 441.478
Pd 432.248 428.588 443.017
Pd 429.984 430.482 443.427
Pd 429.789 432.463 441.638
Pd 433.627 424.544 440.762
Pd 435.444 426.693 440.464
Pd 433.638 426.592 442.505
Pd 433.524 428.515 440.605
Pd 424.911 426.598 446.248
Pd 428.442 422.512 445.279
Pd 426.615 424.474 445.667
Pd 428.462 426.235 445.535
Pd 428.595 424.113 447.238
Pd 426.928 425.927 447.711
Pd 426.685 428.344 445.793
Pd 428.674 430.333 445.742
Pd 428.825 428.081 447.389
Pd 430.406 424.416 445.106
Pd 432.292 426.385 444.986
Pd 430.756 426.181 446.905
Pd 430.406 428.348 445.32
Pd 429.225 425.77 448.901
