1156
CSIRO Nanostructure Databank - Palladium Nanoparticle Data Set 
Pd 422.383 434.002 409.075
Pd 422.835 431.252 409.876
Pd 420.878 432.923 410.839
Pd 422.65 435.032 411.367
Pd 424.496 433.614 410.409
Pd 418.999 431.919 412.576
Pd 419.546 429.275 413.532
Pd 417.453 430.864 414.274
Pd 419.014 433.086 414.921
Pd 423.25 428.88 410.83
Pd 423.585 426.484 411.85
Pd 421.598 427.876 412.632
Pd 420.898 430.46 411.478
Pd 422.959 432.637 412.225
Pd 423.267 430.084 413.131
Pd 421.207 431.773 413.927
Pd 420.727 434.228 413.07
Pd 422.675 436.128 413.697
Pd 423 433.743 414.645
Pd 420.892 435.379 415.458
Pd 422.696 437.349 415.974
Pd 425.453 428.597 412.316
Pd 425.001 430.985 411.201
Pd 426.649 433.097 411.726
Pd 427.154 430.755 412.695
Pd 425.125 432.141 413.611
Pd 424.823 434.686 412.716
Pd 426.852 434.234 414.158
Pd 424.862 435.884 415.185
Pd 428.943 432.669 413.224
Pd 416.02 430.122 416.394
Pd 416.032 427.51 417.423
Pd 414.241 429.226 418.228
Pd 415.852 431.511 418.827
Pd 419.889 426.903 414.548
Pd 420.542 424.701 415.711
Pd 418.385 426.085 416.636
Pd 418.04 428.384 415.785
Pd 419.618 430.726 415.841
Pd 420.127 428.306 417.052
Pd 417.92 429.811 417.913
Pd 417.515 432.244 416.9
Pd 419.035 434.348 417.393
Pd 419.738 431.78 418.454
Pd 417.77 433.503 419.289
Pd 419.55 435.556 419.921
Pd 424.314 424.145 412.755
Pd 424.78 421.844 413.932
Pd 422.593 423.148 414.816
Pd 422.052 425.546 413.604
Pd 423.769 427.664 414.285
Pd 424.217 425.042 415.206
Pd 422.244 426.675 416.122
Pd 421.624 429.203 415.157
Pd 423.49 431.31 415.612
Pd 423.945 428.793 416.683
Pd 421.902 430.531 417.607
Pd 421.189 432.915 416.499
Pd 423.185 434.844 417.119
Pd 423.43 432.579 418.118
Pd 421.321 433.823 418.925
Pd 420.847 436.402 417.778
Pd 422.669 438.409 418.433
Pd 423.188 436.057 419.435
Pd 420.976 437.55 420.212
Pd 422.78 439.628 420.871
Pd 426.393 423.806 414.377
Pd 425.904 426.183 413.289
Pd 427.703 428.272 413.766
Pd 428.138 425.83 414.93
Pd 426.073 427.173 415.641
Pd 425.604 429.746 414.595
Pd 427.4 431.728 415.156
Pd 427.921 429.213 416.215
Pd 425.605 430.758 417.152
Pd 425.23 433.306 416.147
Pd 427.035 435.366 416.628
Pd 427.34 432.908 417.723
Pd 425.408 434.575 418.632
Pd 424.843 437.039 417.64
Pd 427.094 436.752 419.065
Pd 424.852 438.208 419.907
Pd 429.78 427.809 415.285
Pd 429.504 430.223 414.139
Pd 430.949 432.281 414.967
Pd 431.529 429.712 415.764
Pd 429.454 431.343 416.916
Pd 428.99 433.823 415.687
Pd 431.177 433.606 417.279
Pd 429.077 435.059 418.175
Pd 433.319 431.926 416.354
Pd 412.589 428.174 420.234
Pd 413.086 425.964 421.505
Pd 411.088 427.517 422.421
Pd 412.809 429.362 422.733
Pd 416.463 425.201 418.364
Pd 417.246 422.853 419.563
Pd 415.142 424.421 420.421
Pd 414.448 426.839 419.389
Pd 416.372 428.764 419.824
Pd 416.746 426.418 420.889
Pd 414.822 427.868 421.922
Pd 414.329 430.303 420.537
Pd 416.001 432.587 421.351
Pd 416.405 429.983 422.316
Pd 414.401 431.506 423.31
Pd 416.05 433.649 423.625
Pd 421.122 422.225 416.736
Pd 421.434 419.651 417.87
Pd 419.462 421.305 418.682
Pd 418.837 423.814 417.749
Pd 420.618 425.792 418.157
Pd 420.992 423.353 419.321
Pd 418.99 424.864 420.242
Pd 418.395 427.125 418.947
Pd 420.167 429.411 419.572
Pd 420.575 427.077 420.579
Pd 418.442 428.442 421.373
Pd 417.99 431.004 420.292
Pd 419.724 432.889 420.934
Pd 420.196 430.517 421.956
Pd 418.114 432.07 422.829
Pd 417.69 434.55 421.868
Pd 419.404 436.729 422.278
Pd 419.74 434.273 423.231
Pd 417.755 435.764 424.281
Pd 419.58 437.895 424.739
Pd 425.096 419.329 415.105
Pd 425.663 416.846 416.023
Pd 423.488 418.249 417.041
Pd 423.08 420.795 416.054
Pd 424.876 422.797 416.45
Pd 425.29 420.312 417.57
Pd 423.181 421.864 418.408
Pd 422.667 424.205 417.252
Pd 424.461 426.231 417.625
Pd 424.944 423.889 418.926
Pd 422.747 425.357 419.706
Pd 422.362 427.961 418.636
Pd 424.012 430.02 419.255
Pd 424.425 427.629 420.15
Pd 422.469 429.087 421.246
Pd 421.977 431.462 420.091
Pd 423.751 433.56 420.513
Pd 424.198 431.128 421.723
Pd 422.082 432.644 422.504
Pd 421.487 435.039 421.457
Pd 423.128 437.387 421.67
Pd 423.728 434.857 422.818
Pd 421.51 436.392 423.899
Pd 421.056 438.91 422.691
Pd 422.994 440.788 423.162
Pd 423.225 438.482 424.263
Pd 421.321 439.905 425.31
Pd 422.859 441.988 425.724
Pd 427.439 418.823 416.649
Pd 426.913 421.306 415.495
Pd 428.659 423.389 415.724
Pd 429.197 420.954 417.09
Pd 427.091 422.274 417.93
Pd 426.591 424.691 416.939
Pd 428.303 426.941 417.409
Pd 428.83 424.348 418.333
Pd 426.61 425.882 419.263
Pd 426.046 428.289 418.254
Pd 427.761 430.518 418.779
Pd 428.39 428 419.787
Pd 426.298 429.616 420.701
Pd 425.682 432.032 419.726
Pd 427.537 434.196 420.227
Pd 427.984 431.765 421.293
Pd 425.876 433.434 422.138
Pd 425.52 435.846 420.959
Pd 427.243 437.879 421.51
Pd 427.621 435.556 422.649
Pd 425.354 437.004 423.359
Pd 425.003 439.381 422.413
Pd 427.256 439.014 423.971
Pd 425.052 440.5 424.841
Pd 431.061 422.889 417.457
Pd 430.297 425.393 416.469
Pd 432.135 427.338 416.973
Pd 432.691 425.036 418.082
Pd 430.556 426.555 418.844
Pd 430.011 428.983 417.837
Pd 431.777 431.112 418.258
Pd 432.203 428.662 419.251
Pd 430.062 430.279 420.261
Pd 429.487 432.657 419.256
Pd 431.276 434.6 419.742
Pd 431.811 432.253 420.801
Pd 429.773 433.826 421.756
Pd 429.187 436.303 420.586
Pd 431.538 435.922 422.236
Pd 429.386 437.463 422.992
Pd 434.26 427.145 418.414
Pd 433.87 429.572 417.361
Pd 435.503 431.675 418.093
Pd 436.046 429.177 418.907
Pd 433.802 430.735 419.863
Pd 433.412 433.317 418.71
Pd 435.385 432.867 420.421
Pd 433.349 434.357 421.273
Pd 437.644 431.56 419.608
Pd 409.403 426.694 424.143
Pd 409.803 424.211 425.427
Pd 407.921 425.887 426.032
Pd 409.607 427.747 426.729
Pd 413.684 423.379 422.478
Pd 414.015 421.033 423.521
Pd 411.897 422.542 424.522
Pd 411.535 424.873 423.383
Pd 413.183 426.939 423.981
Pd 413.655 424.494 425.008
Pd 411.65 426.115 425.85
Pd 411.245 428.655 424.746
Pd 412.921 430.786 425.233
Pd 413.231 428.298 426.422
Pd 411.228 429.886 427.221
Pd 412.882 431.791 427.713
Pd 417.928 420.372 420.617
Pd 418.242 417.857 421.853
Pd 416.145 419.368 422.638
Pd 415.65 421.785 421.489
Pd 417.252 423.821 422.186
Pd 417.832 421.377 423.294
Pd 415.761 422.937 424.21
Pd 415.284 425.451 423.079
Pd 416.878 427.513 423.539
Pd 417.428 424.978 424.594
Pd 415.274 426.494 425.638
Pd 414.948 429.125 424.482
Pd 416.483 431.246 424.963
Pd 417.119 428.853 426.041
Pd 414.882 430.42 426.851
Pd 414.376 432.806 425.697
Pd 416.179 434.806 426.202
Pd 416.595 432.386 427.351
Pd 414.558 433.9 428.283
Pd 416.129 435.871 428.897
Pd 421.796 417.116 419.021
Pd 422.413 414.77 420.083
Pd 420.304 416.309 421.153
Pd 419.844 418.655 419.978
Pd 421.476 420.831 420.431
Pd 422.077 418.337 421.382
Pd 420.092 419.858 422.33
Pd 419.381 422.372 421.269
Pd 421.091 424.614 421.66
Pd 421.616 422.003 422.789
Pd 419.54 423.529 423.772
Pd 418.905 425.945 422.661
Pd 420.679 428.292 423.194
Pd 421.115 425.765 424.315
Pd 419.146 427.126 425.242
Pd 418.564 429.549 423.989
Pd 420.263 431.703 424.459
Pd 420.772 429.342 425.596
Pd 418.896 430.933 426.388
Pd 418.192 433.269 425.221
Pd 419.959 435.379 425.951
Pd 420.394 433.144 426.911
Pd 418.222 434.695 427.738
Pd 417.923 436.998 426.785
Pd 419.516 439.119 427.155
Pd 420.129 436.684 428.252
Pd 417.839 438.233 429.065
Pd 419.62 440.163 429.681
Pd 426.115 414.379 417.225
Pd 426.608 412.145 418.607
Pd 424.434 413.529 419.197
Pd 423.969 415.796 418.002
Pd 425.891 417.723 418.426
Pd 426.205 415.432 419.601
Pd 424.045 416.847 420.576
Pd 423.549 419.388 419.493
Pd 425.406 421.376 420.003
Pd 425.785 418.858 420.834
Pd 423.824 420.504 421.997
Pd 423.217 423.114 420.843
Pd 425.004 425.111 421.168
Pd 425.466 422.598 422.444
Pd 423.314 424.128 423.358
Pd 422.839 426.552 422.293
Pd 424.643 428.628 422.716
Pd 425.199 426.131 423.767
Pd 422.885 427.747 424.757
Pd 422.473 430.222 423.568
Pd 424.318 432.354 424.085
Pd 424.627 429.841 425.171
Pd 422.545 431.56 426.006
Pd 422.067 434.017 424.973
Pd 423.679 436.161 425.376
Pd 424.287 433.682 426.416
Pd 422.184 435.153 427.439
Pd 421.623 437.525 426.349
Pd 423.466 439.564 426.825
Pd 423.873 436.978 427.904
Pd 421.618 438.635 428.825
Pd 421.466 440.955 427.653
Pd 423.114 442.87 428.282
Pd 423.671 440.655 429.246
Pd 421.273 442.124 430.114
Pd 423.274 444.313 430.685
Pd 428.389 414.103 418.776
Pd 428.076 416.297 417.573
Pd 429.812 418.518 418.016
Pd 430.286 416.141 419.134
Pd 428.102 417.504 420.007
Pd 427.537 419.914 419.037
Pd 429.351 421.929 419.503
Pd 429.937 419.513 420.512
Pd 427.61 420.887 421.567
Pd 427.195 423.443 420.454
Pd 428.934 425.573 420.763
Pd 429.437 422.999 421.882
Pd 427.374 424.598 422.801
Pd 426.911 427.107 421.804
Pd 428.456 429.299 422.196
Pd 429.034 426.727 423.361
Pd 426.863 428.362 424.24
Pd 426.353 430.782 423.153
Pd 428.169 433.008 423.716
Pd 428.484 430.415 424.67
Pd 426.383 432.004 425.572
Pd 425.907 434.729 424.456
Pd 427.596 436.704 425.136
Pd 428.091 434.071 426.183
Pd 425.891 435.677 427.115
Pd 425.504 437.98 425.903
Pd 427.299 440.019 426.538
Pd 427.822 437.684 427.558
Pd 425.558 439.106 428.342
Pd 425.168 441.637 427.236
Pd 427.241 441.166 428.856
Pd 425.175 442.794 429.715
Pd 431.991 418.044 419.856
Pd 431.676 420.425 418.706
Pd 433.231 422.579 419.11
Pd 433.76 420.13 420.402
Pd 431.654 421.657 421.171
Pd 431.118 424.117 419.971
Pd 432.711 426.287 420.62
Pd 433.11 423.888 421.683
Pd 431.012 425.295 422.429
Pd 430.573 427.784 421.308
Pd 432.376 429.715 421.795
Pd 432.896 427.297 422.956
Pd 430.673 428.773 423.909
Pd 430.322 431.323 422.828
Pd 431.964 433.509 423.375
Pd 432.479 430.908 424.413
Pd 430.275 432.561 425.261
Pd 429.744 434.91 424.188
Pd 431.445 437.069 424.54
Pd 431.994 434.703 425.686
Pd 429.784 436.337 426.591
Pd 429.451 438.618 425.469
Pd 431.541 438.442 426.978
Pd 429.538 439.774 428.085
Pd 435.107 422.419 420.778
Pd 434.759 424.833 419.72
Pd 436.595 426.657 419.965
Pd 436.99 424.418 421.211
Pd 434.964 425.776 422
Pd 434.49 428.258 420.961
Pd 436.193 430.454 421.389
Pd 436.624 427.954 422.372
Pd 434.851 429.352 423.293
Pd 433.933 431.981 422.532
Pd 435.471 434.116 422.969
Pd 436.11 431.608 423.959
Pd 434.104 433.252 424.914
Pd 433.655 435.731 423.81
Pd 435.818 435.168 425.429
Pd 433.503 436.644 426.422
Pd 438.732 426.606 421.629
Pd 438.347 428.973 420.498
Pd 439.703 431.168 421.371
Pd 440.307 428.536 422.157
Pd 438.163 430.028 423.195
Pd 437.583 432.664 421.93
Pd 439.816 432.241 423.626
Pd 437.8 433.697 424.493
Pd 441.815 430.577 422.728
Pd 406.713 424.665 428.117
Pd 407.053 421.957 429.348
Pd 405.493 423.844 430.184
Pd 406.644 425.964 430.776
Pd 410.382 421.561 426.328
Pd 410.929 419.14 427.536
Pd 409.02 420.541 428.47
Pd 408.43 423.044 427.192
Pd 410.008 425.316 427.938
Pd 410.323 422.625 429.057
Pd 408.43 424.217 429.88
Pd 407.893 426.82 428.548
Pd 409.653 428.753 429.207
Pd 409.95 426.367 430.499
Pd 408.123 427.965 431.167
Pd 409.88 429.975 431.823
Pd 414.546 418.587 424.755
Pd 415.076 416.316 426.07
Pd 412.905 417.674 426.649
Pd 412.402 419.941 425.435
Pd 414.051 421.904 426.134
Pd 414.555 419.563 427.271
Pd 412.381 421.218 427.978
Pd 411.969 423.659 426.975
Pd 413.726 425.621 427.574
Pd 414.151 423.258 428.678
Pd 412.071 424.913 429.65
Pd 411.728 427.3 428.349
Pd 413.437 429.268 428.912
Pd 413.763 426.741 429.996
Pd 411.77 428.25 430.815
Pd 411.47 430.85 429.76
Pd 413.058 432.938 430.268
Pd 413.531 430.46 431.337
Pd 411.442 432.196 432.132
Pd 413.214 434.068 432.713
Pd 418.525 415.428 423.127
Pd 419.063 413.002 424.26
Pd 416.88 414.739 425.183
Pd 416.772 417.018 423.956
Pd 418.192 419.159 424.533
Pd 418.733 416.624 425.602
Pd 416.608 418.128 426.483
Pd 416.038 420.602 425.201
Pd 417.907 422.56 425.678
Pd 418.299 420.108 427.029
Pd 416.221 421.639 427.846
Pd 415.833 424.16 426.57
Pd 417.559 426.162 427.14
Pd 418.091 423.732 428.309
Pd 415.961 425.207 429.187
Pd 415.425 427.745 427.875
Pd 417.074 429.946 428.374
Pd 417.646 427.51 429.521
Pd 415.586 428.893 430.494
Pd 415.042 431.333 429.39
Pd 416.833 433.432 429.836
Pd 417.127 431.067 431.029
Pd 415.284 432.61 431.89
Pd 414.653 434.997 430.763
Pd 416.213 437.122 431.173
Pd 416.755 434.749 432.296
Pd 414.807 436.02 433.318
Pd 416.413 438.046 433.714
Pd 422.755 412.471 421.299
Pd 423.388 410.271 422.37
Pd 421.29 411.604 423.32
Pd 420.649 413.921 422.06
Pd 422.39 415.948 422.723
Pd 422.867 413.558 423.795
Pd 420.696 414.942 424.529
Pd 420.23 417.394 423.471
Pd 422.103 419.462 423.854
Pd 422.485 417.045 425.086
Pd 420.583 418.685 426.095
Pd 419.882 421.074 424.88
Pd 421.831 423.106 425.394
Pd 422.49 420.749 426.42
Pd 420.381 421.96 427.226
Pd 419.628 424.599 426.341
Pd 421.312 426.843 426.758
Pd 421.94 424.261 427.903
Pd 419.674 425.705 428.728
Pd 419.241 428.34 427.499
Pd 420.859 430.572 427.988
Pd 421.444 428.019 429.079
Pd 419.405 429.646 430.057
Pd 418.789 432.048 428.834
Pd 420.469 434.178 429.541
Pd 421.046 431.723 430.552
Pd 418.948 433.082 431.458
Pd 418.397 435.767 430.4
Pd 420.088 437.668 430.929
Pd 420.549 435.212 431.905
Pd 418.609 436.72 432.903
Pd 418.014 438.95 431.613
Pd 419.715 441.224 432.094
Pd 420.192 438.785 433.293
Pd 418.011 440.041 434.009
Pd 419.809 442.068 434.677
Pd 427.04 409.641 419.649
Pd 427.413 407.397 420.922
Pd 425.448 408.748 421.529
Pd 424.934 411.227 420.374
Pd 426.672 413.196 420.987
Pd 427.075 410.787 422.08
Pd 425.024 412.157 422.992
Pd 424.413 414.481 421.779
Pd 426.371 416.44 421.945
Pd 426.854 414.157 423.416
Pd 424.651 415.777 424.176
Pd 424.311 417.949 423.022
Pd 426.049 420.06 423.545
Pd 426.591 417.66 424.621
Pd 424.312 419.131 425.384
Pd 423.956 421.556 424.386
Pd 425.612 423.658 424.799
Pd 426.273 421.231 425.883
Pd 424.151 422.781 426.881
Pd 423.318 425.233 425.773
Pd 425.148 427.391 426.231
Pd 425.741 424.964 427.254
Pd 423.796 426.588 428.244
Pd 422.957 428.95 427.142
Pd 424.81 431.194 427.574
Pd 425.254 428.69 428.735
Pd 423.227 429.996 429.632
Pd 422.6 432.578 428.512
Pd 424.364 434.567 428.996
Pd 424.786 432.204 430.161
Pd 422.739 433.695 431.107
Pd 422.225 436.226 429.887
Pd 424.034 438.216 430.361
Pd 424.527 435.871 431.482
Pd 422.268 437.156 432.483
Pd 421.893 439.82 431.272
Pd 423.58 441.927 431.649
Pd 424.171 439.379 432.9
Pd 422.004 440.87 433.698
Pd 421.511 443.286 432.491
Pd 423.108 445.248 433.141
Pd 423.589 442.792 434.209
Pd 421.49 444.008 435.107
Pd 423.268 445.968 435.455
Pd 428.962 409.327 421.191
Pd 428.712 411.789 420.157
Pd 430.72 413.66 420.303
Pd 430.854 411.506 421.716
Pd 428.816 412.847 422.556
Pd 428.564 415.052 421.093
Pd 430.175 417.118 421.644
Pd 430.772 414.587 422.859
Pd 428.646 416.027 423.557
Pd 428.234 418.539 422.494
Pd 429.94 420.706 423.087
Pd 430.342 418.095 424.199
Pd 428.453 419.683 425.109
Pd 427.791 422.169 423.97
Pd 429.499 424.319 424.503
Pd 430.051 421.846 425.479
Pd 427.793 423.23 426.381
Pd 427.246 425.904 425.388
Pd 428.967 427.963 425.879
Pd 429.462 425.343 426.991
Pd 427.349 427.071 427.88
Pd 426.832 429.44 426.682
Pd 428.578 431.623 427.196
Pd 429.072 429.02 428.4
Pd 426.833 430.687 429.345
Pd 426.44 433.007 428.017
Pd 428.324 435.338 428.585
Pd 428.754 432.798 429.734
Pd 426.68 434.383 430.614
Pd 426.128 436.719 429.512
Pd 427.88 438.937 430.042
Pd 428.36 436.418 431.071
Pd 426.209 437.876 432.077
Pd 425.83 440.298 430.909
Pd 427.376 442.373 431.289
Pd 428.151 440.022 432.466
Pd 425.842 441.582 433.316
Pd 425.279 443.881 432.258
Pd 427.388 443.465 433.829
Pd 425.259 444.692 434.713
Pd 432.803 413.256 422.143
Pd 432.468 415.686 420.863
Pd 434.294 417.573 421.506
Pd 434.574 415.268 422.643
Pd 432.523 416.756 423.299
Pd 432.013 419.051 422.208
Pd 433.826 421.352 422.667
Pd 434.25 418.811 423.838
Pd 432.17 420.342 424.712
Pd 431.658 422.858 423.635
Pd 433.158 424.972 424.269
Pd 433.667 422.449 425.169
Pd 431.63 423.85 426.202
Pd 431.051 426.351 424.99
Pd 432.79 428.458 425.424
Pd 433.236 426.027 426.477
Pd 431.129 427.709 427.333
Pd 430.652 430.168 426.328
Pd 432.406 432.159 426.718
Pd 432.937 429.574 427.928
Pd 430.802 431.345 428.825
Pd 430.296 433.687 427.726
Pd 431.921 435.822 428.225
Pd 432.607 433.277 429.329
Pd 430.378 434.905 430.31
Pd 430.041 437.396 428.995
Pd 431.731 439.686 429.711
Pd 432.09 436.917 430.732
Pd 430.199 438.638 431.436
Pd 429.533 441.118 430.503
Pd 431.541 440.672 432.29
Pd 429.5 442.161 433.278
Pd 436.332 417.327 423.138
Pd 435.883 419.674 421.995
Pd 437.421 421.936 422.242
Pd 437.941 419.493 423.525
Pd 435.875 420.929 424.377
Pd 435.445 423.455 423.311
Pd 437.197 425.43 423.582
Pd 437.544 423.047 424.851
Pd 435.473 424.485 425.749
Pd 435.058 426.908 424.582
Pd 436.561 429.165 425.133
Pd 437.027 426.662 426.267
Pd 434.837 428.044 427.01
Pd 434.526 430.656 425.894
Pd 436.165 432.734 426.392
Pd 436.596 430.163 427.582
Pd 434.481 431.754 428.415
Pd 434.124 434.353 427.39
Pd 435.825 436.381 427.917
Pd 436.185 433.799 428.864
Pd 434.145 435.412 429.879
Pd 433.606 437.911 428.773
Pd 435.492 437.597 430.349
Pd 433.738 438.928 431.4
Pd 439.461 421.551 423.743
Pd 439.065 423.97 422.811
Pd 440.709 426.086 423.223
Pd 441.066 423.736 424.538
Pd 439.177 425.227 425.304
Pd 438.743 427.561 424.191
Pd 440.294 429.772 424.57
Pd 440.74 427.33 425.872
Pd 438.741 428.836 426.754
Pd 438.255 431.276 425.527
Pd 439.784 433.261 426.16
Pd 440.458 430.917 427.35
Pd 438.243 432.297 428.078
Pd 437.908 435.001 427.082
Pd 439.711 434.469 428.802
Pd 437.69 435.94 429.587
Pd 442.722 425.766 424.998
Pd 442.36 428.11 423.588
Pd 443.622 430.127 424.455
Pd 444.262 427.801 425.379
Pd 442.239 429.341 426.393
Pd 441.839 431.755 425.217
Pd 443.834 431.418 426.885
Pd 441.9 433.027 427.637
Pd 445.637 430.13 426.003
Pd 407.207 423.486 431.969
Pd 410.875 420.212 430.238
Pd 408.857 421.738 431.147
Pd 410.402 423.963 431.622
Pd 410.974 421.494 432.836
Pd 409.152 422.976 433.666
Pd 408.491 425.507 432.522
Pd 410.198 427.566 432.928
Pd 410.702 424.978 434.191
Pd 414.934 417.212 428.515
Pd 412.929 418.593 429.179
Pd 414.467 420.684 429.77
Pd 414.878 418.505 431.089
Pd 412.892 420.018 431.855
Pd 412.497 422.364 430.645
Pd 414.469 424.394 431.302
Pd 414.714 421.902 432.387
Pd 412.605 423.515 433.054
Pd 412.155 425.832 432.1
Pd 413.848 427.996 432.556
Pd 414.396 425.526 433.748
Pd 412.39 427.003 434.622
Pd 411.946 429.548 433.482
Pd 413.662 431.739 433.75
Pd 413.969 429.348 434.947
Pd 419.12 414.324 426.606
Pd 417.06 415.723 427.76
Pd 418.819 417.785 427.988
Pd 419.344 415.266 429.098
Pd 417.072 416.966 430.198
Pd 416.667 419.245 428.926
Pd 418.555 421.507 429.346
Pd 418.997 418.915 430.377
Pd 416.897 420.542 431.435
Pd 416.305 422.847 430.329
Pd 418.172 425.009 430.693
Pd 418.741 422.559 431.847
Pd 416.564 424.065 432.76
Pd 416.086 426.607 431.687
Pd 417.768 428.678 432.103
Pd 418.311 426.146 433.049
Pd 416.108 427.677 434.182
Pd 415.612 430.133 432.989
Pd 417.387 431.989 433.426
Pd 417.742 429.673 434.622
Pd 415.603 431.189 435.464
Pd 415.322 433.721 434.338
Pd 416.977 435.836 434.856
Pd 417.346 433.33 436.026
Pd 423.431 411.175 425.042
Pd 421.2 412.525 425.877
Pd 423.033 414.712 426.124
Pd 423.577 412.374 427.429
Pd 421.421 413.71 428.212
Pd 420.899 416.194 426.958
Pd 422.895 418.34 427.5
Pd 423.004 415.854 428.561
Pd 421.108 417.42 429.545
Pd 420.568 419.773 428.537
Pd 422.332 421.914 429.034
Pd 422.92 419.535 430.115
Pd 420.744 421.081 430.85
Pd 420.331 423.495 429.791
Pd 422.044 425.721 430.222
Pd 422.626 423.179 431.354
Pd 420.433 424.806 432.345
Pd 419.902 427.123 431.067
Pd 421.502 429.272 431.685
Pd 422.009 426.713 432.844
Pd 419.973 428.287 433.71
Pd 419.504 430.665 432.651
Pd 421.002 432.889 432.996
Pd 421.581 430.459 434.197
Pd 419.319 431.929 435.113
Pd 418.837 434.3 433.97
Pd 420.755 436.296 434.328
Pd 421.264 433.85 435.646
Pd 419.254 435.313 436.358
Pd 418.616 437.71 435.278
Pd 420.366 439.786 435.756
Pd 420.73 437.441 436.9
Pd 427.512 408.504 423.22
Pd 425.458 409.742 424.142
Pd 427.207 411.722 424.687
Pd 427.754 409.327 425.702
Pd 425.589 410.698 426.545
Pd 425.176 413.175 425.403
Pd 426.881 415.108 425.883
Pd 427.325 412.708 427.068
Pd 425.235 414.358 427.968
Pd 424.909 416.723 426.747
Pd 426.683 418.825 427.107
Pd 427.153 416.434 428.375
Pd 424.948 417.926 429.264
Pd 424.6 420.315 427.995
Pd 426.305 422.381 428.56
Pd 426.786 419.892 429.48
Pd 424.607 421.632 430.474
Pd 424.174 424.088 429.353
Pd 425.888 426.039 429.913
Pd 426.427 423.623 430.898
Pd 424.249 425.293 432.009
Pd 423.786 427.659 430.746
Pd 425.395 429.647 431.388
Pd 426.035 427.328 432.402
Pd 423.724 428.829 433.348
Pd 423.341 431.239 432.16
Pd 425.087 433.385 432.623
Pd 425.593 430.986 433.776
Pd 423.484 432.408 434.556
Pd 422.942 434.832 433.546
Pd 424.459 436.925 434.01
Pd 425.15 434.548 435.147
Pd 422.835 435.953 436.06
Pd 422.321 438.375 434.982
Pd 424.129 440.426 435.382
Pd 424.525 438.09 436.403
Pd 422.508 439.518 437.331
Pd 422.091 441.833 436.276
Pd 423.532 443.795 436.826
Pd 424.341 441.42 437.781
Pd 429.414 410.413 423.736
Pd 431.256 412.408 424.011
Pd 429.474 411.5 426.257
Pd 429.184 413.749 425.072
Pd 430.795 415.697 425.431
Pd 431.488 413.4 426.534
Pd 429.173 414.859 427.469
Pd 428.626 417.195 426.287
Pd 430.464 419.318 426.662
Pd 431.09 416.839 427.904
Pd 428.777 418.409 428.897
Pd 428.394 420.878 427.622
Pd 430.03 422.988 428.003
Pd 430.584 420.461 429.109
Pd 428.436 421.988 430.137
Pd 427.892 424.535 428.909
Pd 429.681 426.546 429.375
Pd 430.199 424.162 430.608
Pd 428.101 425.671 431.481
Pd 427.476 428.184 430.351
Pd 429.208 430.453 430.783
Pd 429.594 427.875 431.853
Pd 427.67 429.49 432.779
Pd 427.133 431.915 431.841
Pd 428.818 433.927 432.236
Pd 429.33 431.548 433.368
Pd 427.266 433.035 434.333
Pd 426.788 435.495 433.126
Pd 428.652 437.507 433.496
Pd 428.947 435.147 435.012
Pd 426.747 436.749 435.599
Pd 426.466 439.116 434.593
Pd 427.995 441.11 435.159
Pd 428.608 438.69 436.201
Pd 426.406 440.096 436.994
Pd 425.822 442.539 435.864
Pd 432.887 414.397 424.613
Pd 434.679 416.344 425.087
Pd 433.127 415.329 427.215
Pd 432.648 417.837 425.867
Pd 434.256 419.886 426.316
Pd 434.841 417.437 427.584
Pd 432.654 418.821 428.23
Pd 432.049 421.377 427.251
Pd 433.796 423.432 427.793
Pd 434.29 420.856 428.899
Pd 432.127 422.57 429.619
Pd 431.751 425.08 428.624
Pd 433.323 427.274 429.057
Pd 433.763 424.853 430.22
Pd 431.779 426.394 431.129
Pd 431.229 428.625 429.98
Pd 432.872 430.894 430.472
Pd 433.46 428.455 431.534
Pd 431.451 429.919 432.535
Pd 430.965 432.481 431.452
Pd 432.471 434.489 431.843
Pd 433.126 432.092 433.056
Pd 430.997 433.683 433.863
Pd 430.438 435.973 432.812
Pd 431.794 438.158 433.247
Pd 432.67 435.844 434.406
Pd 430.653 437.338 435.323
Pd 430.037 439.85 434.214
Pd 436.473 418.478 425.474
Pd 438.031 420.542 425.941
Pd 436.541 419.558 427.989
Pd 435.971 421.937 426.941
Pd 437.744 423.993 427.177
Pd 438.144 421.63 428.584
Pd 435.957 423.229 429.334
Pd 435.412 425.631 428.182
Pd 437.058 427.864 428.75
Pd 437.651 425.329 429.749
Pd 435.464 426.913 430.71
Pd 434.961 429.369 429.616
Pd 436.738 431.333 430.142
Pd 437.228 428.976 431.334
Pd 435.097 430.578 432.181
Pd 434.768 433.009 431.094
Pd 436.144 435.025 431.539
Pd 436.672 432.441 432.803
Pd 434.517 434.246 433.451
Pd 433.973 436.591 432.329
Pd 439.806 422.512 426.25
Pd 441.302 424.838 426.911
Pd 439.711 423.929 428.984
Pd 439.154 426.343 427.92
Pd 440.948 428.297 428.452
Pd 441.41 425.959 429.609
Pd 439.231 427.521 430.364
Pd 438.782 429.891 429.26
Pd 440.372 432.133 429.784
Pd 441.006 429.45 430.842
Pd 438.88 430.928 431.781
Pd 438.289 433.312 430.724
Pd 442.951 426.725 427.651
Pd 444.353 429.053 428.08
Pd 443.128 427.887 429.952
Pd 442.515 430.665 428.893
Pd 411.283 422.478 435.265
Pd 415.265 419.567 433.419
Pd 413.181 420.987 434.342
Pd 414.773 423.115 434.902
Pd 415.499 420.664 435.807
Pd 413.329 422.086 436.757
Pd 412.743 424.605 435.716
Pd 414.576 426.673 436.075
Pd 414.936 424.248 437.155
Pd 419.499 416.545 431.494
Pd 417.372 418 432.402
Pd 419.081 420.2 432.898
Pd 419.338 417.579 433.947
Pd 417.453 419.227 434.817
Pd 417.05 421.68 433.928
Pd 418.796 423.791 434.409
Pd 419.141 421.228 435.522
Pd 417.014 422.716 436.437
Pd 416.696 425.252 435.071
Pd 418.197 427.331 435.866
Pd 418.701 424.928 436.93
Pd 416.613 426.297 437.716
Pd 416.138 428.693 436.588
Pd 417.863 430.898 437.171
Pd 418.375 428.364 438.334
Pd 423.564 413.504 429.878
Pd 421.469 414.992 430.638
Pd 423.251 417.033 431.105
Pd 423.595 414.697 432.122
Pd 421.54 416.258 433.04
Pd 421.176 418.554 431.978
Pd 422.886 420.673 432.504
Pd 423.466 418.296 433.573
Pd 421.125 419.639 434.442
Pd 420.871 422.124 433.477
Pd 422.633 424.271 433.904
Pd 423.023 421.743 435.1
Pd 420.902 423.407 435.957
Pd 420.411 425.846 434.875
Pd 422.104 427.864 435.317
Pd 422.676 425.366 436.386
Pd 420.436 426.85 437.441
Pd 419.892 429.371 436.25
Pd 421.679 431.541 436.793
Pd 422.105 429.051 437.801
Pd 419.932 430.413 438.658
Pd 419.561 432.978 437.562
Pd 421.292 435.025 438.148
Pd 421.771 432.664 439.241
Pd 427.929 410.404 427.963
Pd 425.859 411.836 429.048
Pd 427.533 413.991 429.45
Pd 427.84 411.753 430.469
Pd 425.751 413.104 431.362
Pd 425.285 415.506 430.251
Pd 427.172 417.543 430.804
Pd 427.618 415.135 431.769
Pd 425.437 416.644 432.636
Pd 425.144 419.269 431.537
Pd 426.805 421.242 432.198
Pd 427.229 418.731 433.246
Pd 425.186 420.42 434.198
Pd 424.634 422.797 433.105
Pd 426.392 424.823 433.518
Pd 426.942 422.372 434.643
Pd 424.795 423.833 435.567
Pd 424.412 426.303 434.5
Pd 426.08 428.387 434.888
Pd 426.548 425.999 436.027
Pd 424.384 427.453 436.879
Pd 423.746 429.946 435.749
Pd 425.611 432.122 436.199
Pd 425.975 429.581 437.29
Pd 423.887 431.146 438.197
Pd 423.373 433.637 437.222
Pd 425.042 435.719 437.586
Pd 425.694 433.067 438.76
Pd 423.438 434.642 439.632
Pd 422.989 437.125 438.65
Pd 424.833 439.074 438.827
Pd 425.108 436.602 439.984
Pd 429.542 412.367 428.66
Pd 431.24 414.368 429.002
Pd 429.866 413.53 431.077
Pd 429.243 416.019 429.95
Pd 431.21 417.99 430.339
Pd 431.356 415.53 431.551
Pd 429.493 417.299 432.318
Pd 428.866 419.624 431.234
Pd 430.461 421.706 431.755
Pd 431.256 419.324 432.964
Pd 429.123 420.752 433.746
Pd 428.481 423.212 432.603
Pd 430.153 425.421 433.2
Pd 430.673 422.898 434.218
Pd 428.523 424.505 435.264
Pd 428.239 426.891 434.052
Pd 429.844 429.138 434.452
Pd 430.379 426.65 435.798
Pd 428.184 428.154 436.568
Pd 427.727 430.583 435.511
Pd 429.356 432.666 435.94
Pd 429.949 430.305 437.084
Pd 427.794 431.754 437.967
Pd 427.22 434.23 436.89
Pd 428.969 436.205 437.361
Pd 429.677 433.811 438.403
Pd 427.333 435.345 439.21
Pd 426.783 437.55 438.117
Pd 433.249 416.494 429.656
Pd 434.768 418.56 429.981
Pd 433.17 417.802 431.965
Pd 432.712 420.27 431.004
Pd 434.423 422.319 431.268
Pd 434.921 419.82 432.534
Pd 432.825 421.362 433.271
Pd 432.295 423.794 432.111
Pd 434.003 425.967 432.821
Pd 434.523 423.583 433.662
Pd 432.366 425.067 434.684
Pd 431.898 427.531 433.604
Pd 433.618 429.56 434.168
Pd 434.033 427.068 435.164
Pd 432.06 428.643 436.132
Pd 431.463 431.153 435.01
Pd 433.162 433.16 435.399
Pd 433.594 430.769 436.627
Pd 431.641 432.286 437.46
Pd 431.207 434.72 436.371
Pd 436.41 420.665 430.522
Pd 438.182 422.997 430.901
Pd 436.564 422.123 432.838
Pd 436.077 424.525 431.788
Pd 437.676 426.595 432.265
Pd 438.319 424.163 433.387
Pd 436.201 425.641 434.389
Pd 435.654 428.144 433.239
Pd 437.233 430.191 433.829
Pd 437.787 427.714 434.827
Pd 435.594 429.2 435.727
Pd 435.236 431.799 434.836
Pd 439.713 425.133 431.458
Pd 441.602 427.177 432.061
Pd 439.739 426.264 433.921
Pd 439.483 428.695 432.884
Pd 415.428 421.62 438.242
Pd 419.714 418.749 436.437
Pd 417.732 420.228 437.419
Pd 419.232 422.387 437.94
Pd 419.745 419.974 438.969
Pd 417.645 421.536 439.787
Pd 417.047 423.906 438.724
Pd 418.688 425.921 439.43
Pd 419.322 423.452 440.456
Pd 423.73 415.823 434.553
Pd 421.592 417.312 435.405
Pd 423.389 419.343 436.007
Pd 423.879 416.835 437.193
Pd 421.819 418.444 437.826
Pd 421.296 420.894 437.029
Pd 423.016 422.811 437.559
Pd 423.609 420.388 438.557
Pd 421.425 421.847 439.498
Pd 420.892 424.403 438.574
Pd 422.711 426.554 438.846
Pd 423.177 424.161 440.075
Pd 420.968 425.58 440.9
Pd 420.483 427.993 439.784
Pd 422.192 430.036 440.311
Pd 422.641 427.693 441.219
Pd 428.023 412.912 432.965
Pd 425.814 414.225 433.712
Pd 427.568 416.249 434.194
Pd 428.071 413.998 435.443
Pd 425.982 415.294 436.14
Pd 425.548 417.758 435.202
Pd 427.41 419.965 435.697
Pd 427.904 417.463 436.681
Pd 425.834 418.87 437.554
Pd 425.168 421.408 436.636
Pd 426.96 423.507 437.142
Pd 427.413 421.12 438.25
Pd 425.32 422.496 439.055
Pd 424.744 424.836 438.054
Pd 426.526 427.109 438.472
Pd 427.082 424.772 439.585
Pd 424.802 426.215 440.4
Pd 424.371 428.704 439.424
Pd 426.175 430.669 439.833
Pd 426.573 428.216 440.957
Pd 424.526 429.806 441.735
Pd 424.013 432.148 440.575
Pd 425.634 434.283 440.953
Pd 426.082 432.026 442.052
Pd 429.664 414.775 433.46
Pd 431.637 416.773 433.986
Pd 429.918 415.939 435.919
Pd 429.6 418.357 434.78
Pd 431.297 420.514 435.376
Pd 431.649 418.035 436.368
Pd 429.56 419.45 437.335
Pd 429.161 421.926 436.327
Pd 430.809 424.086 436.669
Pd 431.504 421.588 437.769
Pd 429.096 423.116 438.72
Pd 428.706 425.705 437.72
Pd 430.577 427.74 438.202
Pd 431.072 425.294 439.115
Pd 428.78 426.802 440.171
Pd 428.289 429.144 438.937
Pd 429.929 431.291 439.53
Pd 430.415 428.798 440.574
Pd 428.34 430.452 441.413
Pd 428.027 433.009 440.334
Pd 433.396 418.835 434.434
Pd 435.017 421.122 434.745
Pd 433.534 420.109 436.688
Pd 433.041 422.42 435.806
Pd 434.708 424.615 436.202
Pd 435.251 422.265 437.262
Pd 433.332 423.725 438.485
Pd 432.548 426.14 437.246
Pd 434.09 428.203 437.707
Pd 434.723 425.784 438.786
Pd 432.794 427.382 439.67
Pd 432.168 429.862 438.661
Pd 436.817 423.07 435.267
Pd 438.294 425.121 435.907
Pd 436.589 424.519 437.889
Pd 436.271 426.856 436.818
Pd 419.941 421.047 441.303
Pd 424.045 417.924 439.565
Pd 421.962 419.453 440.498
Pd 423.541 421.65 441.156
Pd 424.116 419.145 442.06
Pd 422.226 420.87 443.007
Pd 421.585 423.203 441.932
Pd 423.303 425.302 442.502
Pd 423.904 422.849 443.572
Pd 428.108 415.065 437.774
Pd 426.258 416.564 438.725
Pd 427.948 418.487 439.155
Pd 428.622 416.167 440.314
Pd 426.253 417.435 441.129
Pd 425.769 419.944 440.167
Pd 427.46 422.254 440.81
Pd 427.963 419.641 441.586
Pd 425.89 421.152 442.68
Pd 425.347 423.751 441.619
Pd 427.103 425.835 441.962
Pd 427.577 423.526 443.134
Pd 425.545 424.941 444.034
Pd 424.986 427.355 442.824
Pd 426.709 429.348 443.375
Pd 427.233 426.945 444.422
Pd 430.072 416.904 438.276
Pd 431.774 419.231 438.792
Pd 430.214 418.286 440.598
Pd 429.654 420.786 439.799
Pd 431.434 422.886 440.236
Pd 431.856 420.486 441.157
Pd 429.763 421.914 442.301
Pd 429.285 424.411 441.125
Pd 431.111 426.473 441.592
Pd 431.354 423.992 442.714
Pd 429.39 425.599 443.644
Pd 428.863 427.929 442.493
Pd 433.788 421.255 439.322
Pd 435.134 423.442 440.01
Pd 433.414 422.678 441.76
Pd 433.199 425.16 440.823
Pd 424.315 420.21 444.49
Pd 428.506 417.361 442.496
Pd 426.221 418.628 443.583
Pd 428.047 420.857 444.055
Pd 428.578 418.395 444.746
Pd 426.587 419.855 445.862
Pd 426.009 422.368 444.965
Pd 427.846 424.38 445.477
Pd 428.179 422.054 446.403
Pd 430.289 419.558 443.132
Pd 431.891 421.638 443.672
Pd 430.262 420.57 445.429
Pd 429.932 423.077 444.694
Pd 428.805 419.61 447.119
