875
CSIRO Nanostructure Databank - Palladium Nanoparticle Data Set 
Pd 401.659 401 412.592
Pd 399.64 402.53 413.013
Pd 403.309 403.873 410.524
Pd 401.225 405.508 410.905
Pd 402.766 407.354 410.32
Pd 404.882 405.999 409.631
Pd 406.338 407.973 408.89
Pd 404.355 409.441 409.682
Pd 405.859 411.502 408.789
Pd 407.942 409.955 408.487
Pd 409.699 411.894 407.674
Pd 407.65 413.727 408.173
Pd 409.282 415.961 407.486
Pd 411.06 414.094 407.053
Pd 412.753 416.32 406.368
Pd 410.904 417.997 406.972
Pd 412.497 420.141 405.914
Pd 414.479 418.149 405.547
Pd 416.101 420.409 404.96
Pd 414.153 422.115 405.387
Pd 415.519 424.533 404.872
Pd 417.66 422.898 404.137
Pd 419.479 424.762 403.823
Pd 417.022 426.601 404.167
Pd 418.675 426.901 402.492
Pd 421.458 426.64 403.28
Pd 420.449 428.694 402.117
Pd 418.57 428.868 403.994
Pd 400.711 403.154 410.716
Pd 400.104 405.025 413.516
Pd 401.046 403.275 415.442
Pd 400.248 407.383 415.234
Pd 404.264 401.827 412.328
Pd 402.872 401.927 414.63
Pd 402.07 403.604 412.728
Pd 403.481 405.789 412.344
Pd 404.429 403.929 413.874
Pd 402.19 405.61 414.665
Pd 401.561 407.499 412.903
Pd 403.061 409.487 412.016
Pd 403.838 407.826 414.044
Pd 401.772 409.662 414.497
Pd 403.467 411.745 413.72
Pd 406.607 402.361 413.709
Pd 405.844 403.954 411.491
Pd 407.124 406.203 411.039
Pd 408.122 404.481 412.88
Pd 405.909 406.152 413.385
Pd 405.086 407.975 411.555
Pd 406.827 409.783 410.761
Pd 407.586 408.176 412.713
Pd 405.485 409.859 413.411
Pd 404.606 411.705 411.305
Pd 406.172 413.621 410.485
Pd 406.924 412.06 412.471
Pd 404.987 413.798 412.839
Pd 406.657 415.879 412.241
Pd 409.702 406.341 412.256
Pd 408.691 408.097 410.07
Pd 410.146 410.237 409.709
Pd 411.308 408.467 411.58
Pd 409.163 410.142 412.177
Pd 408.217 411.998 410.134
Pd 409.944 414.07 409.364
Pd 410.571 412.376 411.348
Pd 408.594 414.121 411.855
Pd 408.072 415.756 409.893
Pd 409.548 418.054 409.245
Pd 410.363 416.097 411.077
Pd 408.155 417.803 411.687
Pd 409.677 419.955 411.055
Pd 412.586 410.714 410.626
Pd 411.955 412.335 408.604
Pd 413.548 414.315 408.286
Pd 414.341 412.721 410.145
Pd 412.369 414.277 410.627
Pd 411.531 416.229 408.809
Pd 413.113 418.357 408.179
Pd 413.908 416.561 410.13
Pd 411.955 418.266 410.691
Pd 411.084 420.249 408.403
Pd 412.763 422.145 407.836
Pd 413.319 420.533 409.747
Pd 411.135 422.162 410.201
Pd 412.677 424.18 409.312
Pd 416.048 414.844 409.498
Pd 415.136 416.6 407.595
Pd 416.738 418.705 406.978
Pd 417.444 416.812 408.836
Pd 415.423 418.647 409.536
Pd 414.707 420.249 407.258
Pd 416.352 422.753 406.594
Pd 417.099 420.68 408.521
Pd 415.125 422.5 408.864
Pd 414.168 424.255 407.081
Pd 415.795 426.476 406.339
Pd 416.539 424.86 408.337
Pd 414.251 426.122 408.824
Pd 415.862 428.24 408.291
Pd 419.108 419.166 408.261
Pd 418.301 420.858 405.876
Pd 419.89 422.828 405.53
Pd 420.718 421.151 407.5
Pd 418.545 422.792 407.948
Pd 417.801 424.751 405.935
Pd 419.54 426.756 405.245
Pd 420.19 424.924 407.124
Pd 418.23 426.764 407.635
Pd 417.362 428.566 406.038
Pd 419.071 430.569 405.63
Pd 419.856 428.716 407.057
Pd 417.649 430.402 407.726
Pd 422.389 423.277 406.915
Pd 421.715 424.981 405.173
Pd 423.663 426.917 404.401
Pd 424.19 425.436 406.324
Pd 421.943 427.207 406.444
Pd 421.101 428.99 404.611
Pd 422.874 428.765 402.916
Pd 423.68 428.926 405.862
Pd 421.459 430.641 406.516
Pd 400.963 405.567 417.009
Pd 400.438 409.512 416.948
Pd 401.17 407.765 418.834
Pd 400.75 411.558 418.685
Pd 405.202 402.159 415.781
Pd 403.232 403.885 416.371
Pd 404.684 405.911 415.747
Pd 405.572 404.135 417.8
Pd 403.448 405.897 418.195
Pd 402.437 407.729 416.39
Pd 404.091 409.912 415.681
Pd 404.954 408.013 417.604
Pd 402.796 409.914 418.033
Pd 401.93 411.672 416.148
Pd 403.534 413.748 415.281
Pd 404.49 411.969 417.251
Pd 402.385 413.41 417.856
Pd 403.845 415.833 417.194
Pd 408.936 402.637 414.747
Pd 407.536 402.482 416.783
Pd 406.568 404.34 415.282
Pd 408.417 406.573 414.624
Pd 409.03 404.614 416.444
Pd 407.095 406.342 416.995
Pd 406.307 408.132 415.219
Pd 407.947 410.383 414.537
Pd 408.774 408.46 416.675
Pd 406.441 410.207 416.929
Pd 405.637 412.214 414.95
Pd 407.384 414.044 414.291
Pd 408.245 412.296 416.223
Pd 405.863 414.104 416.568
Pd 404.996 415.82 414.752
Pd 406.782 417.963 414.028
Pd 407.741 416.048 416.024
Pd 405.782 417.794 416.532
Pd 407.13 419.929 415.94
Pd 411.149 402.943 415.952
Pd 410.496 404.571 414.216
Pd 411.981 406.698 413.559
Pd 412.967 405.282 415.457
Pd 410.691 406.787 416.17
Pd 409.961 408.348 413.923
Pd 411.634 410.462 413.318
Pd 412.347 408.749 415.255
Pd 410.242 410.463 415.746
Pd 409.465 412.225 413.765
Pd 411.16 414.425 413
Pd 411.645 412.553 415.185
Pd 409.797 414.198 415.473
Pd 408.951 415.932 413.469
Pd 410.505 418.115 412.967
Pd 411.213 416.387 414.915
Pd 409.225 418.201 415.431
Pd 408.476 419.801 413.341
Pd 410.199 421.932 412.64
Pd 410.706 420.142 414.586
Pd 408.664 422.035 414.993
Pd 410.288 424.175 414.349
Pd 414.73 407.133 414.847
Pd 413.648 408.783 412.883
Pd 415.191 410.87 411.997
Pd 416.174 409.188 413.95
Pd 413.905 410.689 414.556
Pd 413.134 412.512 412.631
Pd 414.838 414.596 412.029
Pd 415.695 412.948 413.68
Pd 413.568 414.559 414.355
Pd 412.798 416.41 412.647
Pd 414.291 418.709 411.798
Pd 415.238 416.761 413.847
Pd 413.005 418.553 414.119
Pd 412.125 420.412 412.194
Pd 413.691 422.492 411.461
Pd 414.526 420.666 413.542
Pd 412.436 422.357 413.918
Pd 411.588 424.185 412.089
Pd 413.009 426.069 411.339
Pd 413.881 424.615 413.261
Pd 411.731 426.319 413.601
Pd 413.481 428.34 413.222
Pd 417.69 411.234 413.421
Pd 416.756 413.083 411.176
Pd 418.411 415.263 410.869
Pd 419.053 413.184 412.551
Pd 417.326 414.946 412.973
Pd 416.386 416.932 411.478
Pd 417.835 419.18 410.7
Pd 418.776 417.266 412.527
Pd 416.683 419.006 413.089
Pd 415.736 420.884 411.041
Pd 417.581 422.9 410.557
Pd 418.254 421.131 412.368
Pd 416.079 422.772 412.741
Pd 415.16 424.624 410.648
Pd 416.808 426.704 410.21
Pd 417.823 424.861 412.034
Pd 415.628 426.62 412.692
Pd 414.732 428.121 410.722
Pd 416.164 430.269 410.069
Pd 417.072 428.823 412.117
Pd 415.198 430.431 412.725
Pd 420.644 415.492 412.188
Pd 419.973 417.323 410.041
Pd 421.709 419.413 409.445
Pd 422.416 417.519 411.468
Pd 420.313 419.357 411.819
Pd 419.612 421.179 409.908
Pd 421.044 423.266 409.022
Pd 421.832 421.427 411.081
Pd 420.127 423.294 411.696
Pd 419.159 425.021 409.735
Pd 420.819 426.975 408.821
Pd 421.435 425.689 411.075
Pd 419.408 427.082 411.498
Pd 418.464 428.705 409.417
Pd 420.04 430.804 408.663
Pd 420.858 429.203 410.635
Pd 418.379 430.762 411.122
Pd 423.891 419.848 410.615
Pd 423.045 421.545 408.681
Pd 424.685 423.61 408.025
Pd 425.31 421.991 410.079
Pd 423.359 423.455 410.459
Pd 422.618 425.373 408.472
Pd 424.242 427.361 407.996
Pd 424.913 425.517 409.795
Pd 423.087 427.589 410.319
Pd 422.416 429.263 408.31
Pd 401.686 409.987 420.296
Pd 401.311 413.372 420.21
Pd 402.024 411.849 422.208
Pd 401.683 415.446 421.913
Pd 405.795 406.273 419.389
Pd 403.492 408.081 419.925
Pd 405.221 410.035 419.293
Pd 406.044 408.551 421.356
Pd 404.074 410.313 421.802
Pd 403.361 411.924 419.855
Pd 404.912 413.991 419.156
Pd 405.728 412.166 421.118
Pd 403.754 413.77 421.491
Pd 402.916 415.448 419.627
Pd 404.458 417.727 419.016
Pd 405.333 416.107 420.848
Pd 403.183 417.489 421.349
Pd 404.426 419.705 420.717
Pd 409.68 403.084 418.188
Pd 407.794 404.663 418.93
Pd 409.45 406.758 418.498
Pd 409.993 405.003 420.314
Pd 408.007 406.508 420.779
Pd 407.413 408.465 418.82
Pd 408.979 410.745 418.418
Pd 409.71 408.679 420.42
Pd 407.661 410.526 420.565
Pd 406.901 412.449 418.446
Pd 408.622 414.26 418.04
Pd 409.515 412.705 420.296
Pd 407.204 414.303 420.406
Pd 406.616 416.082 418.3
Pd 408.001 418.235 417.828
Pd 408.801 416.543 419.621
Pd 406.719 418.197 420.217
Pd 405.777 420.033 418.246
Pd 407.638 421.818 417.467
Pd 408.34 420.3 419.584
Pd 406.062 421.729 419.958
Pd 407.611 423.953 419.347
Pd 413.476 403.384 417.491
Pd 412.133 403.291 419.76
Pd 411.317 404.953 417.744
Pd 413.079 407.177 417.164
Pd 413.989 405.42 419.191
Pd 411.823 406.922 419.65
Pd 411.102 408.852 417.996
Pd 412.708 410.854 417.181
Pd 413.555 409.157 419.136
Pd 411.465 411.003 419.642
Pd 410.629 412.721 417.682
Pd 412.114 414.705 416.91
Pd 413.075 412.945 418.791
Pd 410.988 414.872 419.392
Pd 410.027 416.583 417.346
Pd 411.817 418.525 416.494
Pd 412.58 416.727 418.508
Pd 410.556 418.82 419.006
Pd 409.751 420.337 417.051
Pd 411.017 422.68 416.226
Pd 412.066 420.857 418.36
Pd 409.728 422.633 418.835
Pd 408.95 424.107 416.677
Pd 410.234 426.261 416.06
Pd 411.246 424.526 418.05
Pd 409.121 426.052 418.616
Pd 410.773 428.245 417.995
Pd 415.917 403.845 418.883
Pd 415.268 405.295 416.794
Pd 416.909 407.403 416.131
Pd 417.662 405.695 417.839
Pd 415.491 407.361 418.406
Pd 414.775 409.096 416.56
Pd 416.278 411.281 415.799
Pd 417.194 409.517 418.048
Pd 415.101 411.254 418.477
Pd 414.337 412.993 416.421
Pd 416.04 414.943 415.633
Pd 416.805 413.263 417.509
Pd 414.79 415.094 418.113
Pd 413.714 416.705 416.065
Pd 415.354 419.025 415.475
Pd 416.056 417.189 417.286
Pd 413.957 418.852 417.793
Pd 413.148 420.685 415.859
Pd 414.722 422.851 415.242
Pd 415.47 421.156 417.194
Pd 413.469 422.992 417.554
Pd 412.562 424.774 415.886
Pd 414.4 426.349 414.943
Pd 415.486 424.884 416.898
Pd 412.902 426.45 417.607
Pd 412.37 428.075 415.639
Pd 413.91 430.183 415.024
Pd 414.878 428.579 416.863
Pd 412.545 430.065 417.391
Pd 419.148 407.995 417.593
Pd 418.349 409.489 415.354
Pd 420.033 411.443 414.634
Pd 420.739 410.027 416.835
Pd 418.664 411.462 417.294
Pd 418.064 413.184 414.971
Pd 419.335 415.505 414.377
Pd 420.245 413.599 416.303
Pd 418.298 415.59 416.957
Pd 417.497 417.388 415.128
Pd 419.104 419.412 414.261
Pd 419.934 417.798 416.312
Pd 417.652 419.569 416.752
Pd 416.937 421.272 414.76
Pd 418.571 423.26 414.048
Pd 419.379 421.431 416.22
Pd 417.393 423.04 416.688
Pd 416.638 424.926 414.428
Pd 418.202 427.075 413.725
Pd 418.903 425.42 415.85
Pd 416.985 427.036 416.294
Pd 415.91 428.634 414.429
Pd 417.679 430.602 413.708
Pd 418.629 429.042 415.534
Pd 416.495 430.511 416.183
Pd 422.673 411.934 415.925
Pd 421.563 413.688 414.098
Pd 423.1 415.941 413.236
Pd 423.883 414.264 415.4
Pd 421.742 415.886 415.757
Pd 421.023 417.571 413.689
Pd 422.697 419.659 412.984
Pd 423.278 418.011 415.106
Pd 421.39 419.905 415.647
Pd 420.665 421.396 413.652
Pd 422.412 423.577 412.9
Pd 423.027 421.723 415.006
Pd 420.97 423.594 415.287
Pd 420.421 425.314 413.398
Pd 421.919 427.666 412.812
Pd 422.673 425.791 414.709
Pd 420.696 427.427 415.368
Pd 419.7 429.09 413.136
Pd 425.569 416.252 414.757
Pd 424.929 417.97 412.934
Pd 426.208 419.991 412.188
Pd 427.157 418.738 414.2
Pd 425.001 420.229 414.561
Pd 424.178 421.833 412.496
Pd 425.536 423.782 411.869
Pd 426.523 422.113 413.729
Pd 424.83 423.967 414.184
Pd 423.983 425.705 412.188
Pd 402.576 413.932 423.917
Pd 401.822 417.351 423.733
Pd 402.749 416.029 425.747
Pd 401.829 419.251 426.002
Pd 406.441 410.49 422.953
Pd 404.655 412.157 423.652
Pd 406.15 414.442 422.827
Pd 406.793 412.507 424.943
Pd 404.936 414.326 425.151
Pd 404.001 415.906 423.261
Pd 405.422 418.134 422.768
Pd 406.4 416.429 424.635
Pd 404.217 417.801 425.265
Pd 403.138 419.628 423.52
Pd 404.684 421.7 422.402
Pd 405.463 420.122 424.423
Pd 403.445 421.78 424.852
Pd 405.003 423.971 424.208
Pd 410.909 407.148 422.197
Pd 408.488 408.731 422.672
Pd 410.11 410.792 422.125
Pd 410.85 409.055 424.182
Pd 408.903 410.87 424.41
Pd 408.024 412.39 422.586
Pd 409.638 414.884 421.591
Pd 410.477 412.969 423.621
Pd 408.507 414.529 424.042
Pd 407.729 416.468 422.123
Pd 409.19 418.628 421.473
Pd 409.994 416.96 423.733
Pd 407.888 418.676 423.934
Pd 406.759 420.223 422.078
Pd 408.388 422.309 421.27
Pd 409.33 420.905 423.288
Pd 407.058 422.252 423.72
Pd 406.148 423.862 421.694
Pd 407.758 425.867 420.989
Pd 408.648 424.524 422.876
Pd 406.416 426.072 423.416
Pd 408.253 427.822 422.529
Pd 414.655 403.758 421.109
Pd 412.641 405.193 421.844
Pd 413.986 407.342 420.956
Pd 415.121 405.653 423.08
Pd 413.055 407.398 423.636
Pd 412.164 409.128 421.497
Pd 413.794 411.398 420.827
Pd 414.488 409.393 422.915
Pd 412.582 411.345 423.291
Pd 412.019 413.116 421.214
Pd 413.335 415.26 420.643
Pd 414.073 413.521 422.675
Pd 411.802 415.131 423.203
Pd 411.254 417.016 421.1
Pd 412.628 418.98 420.312
Pd 413.696 417.222 422.587
Pd 411.459 418.996 423.149
Pd 410.67 420.947 420.957
Pd 412.325 423.009 420.11
Pd 413.087 421.147 421.94
Pd 410.859 422.818 422.588
Pd 410.053 424.441 420.601
Pd 411.663 426.437 419.903
Pd 412.533 424.751 421.887
Pd 410.519 426.672 422.425
Pd 409.586 428.122 420.253
Pd 411.361 430.075 419.67
Pd 412.155 428.578 421.739
Pd 409.916 430.093 422.074
Pd 418.493 404.451 419.978
Pd 417.301 404.206 422.319
Pd 416.174 405.934 420.652
Pd 417.997 407.826 419.997
Pd 418.696 406.373 421.985
Pd 416.56 407.88 422.364
Pd 415.843 409.443 420.332
Pd 417.324 411.706 419.816
Pd 418.382 409.995 421.819
Pd 416.103 411.659 422.083
Pd 415.514 413.273 420.15
Pd 416.896 415.504 419.386
Pd 417.911 413.872 421.379
Pd 415.744 415.541 421.906
Pd 414.766 417.34 419.937
Pd 416.315 419.458 419.407
Pd 417.162 417.635 421.176
Pd 415.122 419.282 421.632
Pd 414.402 421.235 419.628
Pd 415.938 423.356 419.013
Pd 416.659 421.566 421.055
Pd 414.682 423.317 421.491
Pd 413.812 424.948 419.45
Pd 415.591 426.89 418.708
Pd 416.309 425.226 420.673
Pd 414.257 426.84 421.276
Pd 413.376 428.432 419.264
Pd 415.025 430.397 418.598
Pd 415.569 428.725 420.522
Pd 413.741 430.467 420.934
Pd 420.772 404.583 421.472
Pd 420.06 406.368 419.379
Pd 421.766 408.519 418.762
Pd 422.644 406.665 420.708
Pd 420.355 408.386 421.267
Pd 419.466 410.065 419.287
Pd 421.117 412.176 418.465
Pd 422.064 410.512 420.523
Pd 419.895 411.995 421.178
Pd 419.148 413.948 418.964
Pd 420.532 416.035 418.195
Pd 421.486 414.28 420.301
Pd 419.42 416.008 420.555
Pd 418.518 417.904 418.717
Pd 420.201 419.965 418.033
Pd 421.086 418.189 419.923
Pd 418.861 419.919 420.5
Pd 417.869 421.526 418.639
Pd 419.659 423.542 417.833
Pd 420.603 421.832 419.795
Pd 418.491 423.641 420.203
Pd 417.758 425.45 418.342
Pd 419.263 427.411 417.596
Pd 420.073 425.657 419.525
Pd 418.053 427.327 420.177
Pd 417.266 428.983 417.981
Pd 424.028 408.84 420.07
Pd 423.218 410.542 417.922
Pd 424.656 412.779 417.399
Pd 425.462 410.927 419.247
Pd 423.401 412.827 419.761
Pd 422.506 414.261 417.684
Pd 424.455 416.283 417.088
Pd 425.093 414.798 419.123
Pd 423.006 416.325 419.38
Pd 422.319 418.087 417.526
Pd 424.014 420.321 417.072
Pd 424.7 418.267 418.876
Pd 422.692 420.096 419.329
Pd 421.772 421.962 417.321
Pd 423.378 424.042 416.679
Pd 424.305 422.384 418.656
Pd 422.25 424.031 419.148
Pd 421.424 425.588 417.191
Pd 427.077 412.898 418.476
Pd 426.565 414.572 416.715
Pd 427.977 416.857 415.918
Pd 428.832 415.33 418.084
Pd 426.751 416.702 418.36
Pd 425.715 418.434 416.356
Pd 427.181 420.647 416.093
Pd 428.135 418.665 417.748
Pd 426.26 420.676 418.517
Pd 425.425 422.474 416.194
Pd 403.092 417.834 427.731
Pd 402.02 421.258 427.044
Pd 402.926 420.242 429.303
Pd 402.63 423.604 429.405
Pd 407.185 414.59 426.39
Pd 405.26 416.012 427.147
Pd 406.678 418.6 426.294
Pd 407.238 416.475 428.397
Pd 405.406 418.39 428.717
Pd 404.382 420.124 426.946
Pd 405.891 422.393 426.028
Pd 406.785 420.605 428.151
Pd 404.691 422.078 428.535
Pd 403.644 423.658 426.859
Pd 404.872 425.905 426.048
Pd 406.031 424.255 427.91
Pd 404.022 425.735 428.745
Pd 405.362 427.968 427.62
Pd 411.292 411.335 425.709
Pd 409.337 412.985 426.19
Pd 410.895 415.093 425.704
Pd 411.384 413.346 427.572
Pd 409.384 415.002 428.11
Pd 408.743 416.691 426.025
Pd 410.238 419.079 425.367
Pd 411.031 417.253 427.298
Pd 408.972 418.763 427.711
Pd 407.987 420.671 425.599
Pd 409.554 422.78 425.084
Pd 410.573 420.819 427.329
Pd 408.226 422.669 427.4
Pd 407.271 424.43 425.369
Pd 409.071 426.349 424.722
Pd 409.939 424.843 426.744
Pd 407.552 426.355 427.307
Pd 406.733 427.772 425.46
Pd 408.531 429.732 424.357
Pd 409.273 428.578 426.454
Pd 407.183 429.972 426.76
Pd 415.284 407.81 425.032
Pd 413.158 409.497 425.331
Pd 414.86 411.671 424.503
Pd 415.838 409.923 426.479
Pd 413.687 411.684 426.772
Pd 412.819 413.506 425.046
Pd 414.434 415.628 424.556
Pd 415.105 413.842 426.256
Pd 413.108 415.479 427.056
Pd 412.433 417.225 425.001
Pd 413.778 419.379 424.024
Pd 414.799 417.601 426.141
Pd 412.637 419.309 426.592
Pd 411.754 421.156 424.595
Pd 413.246 423.075 423.852
Pd 414.326 421.549 426.08
Pd 411.917 422.903 426.379
Pd 411.131 424.651 424.249
Pd 413.085 426.891 423.562
Pd 413.707 425.113 425.514
Pd 411.479 426.875 425.975
Pd 410.733 428.616 423.964
Pd 412.62 430.371 423.495
Pd 413.077 428.82 425.373
Pd 410.821 430.711 425.54
Pd 419.538 404.749 423.796
Pd 417.404 406.211 424.405
Pd 419.205 408.232 423.758
Pd 419.768 406.539 425.649
Pd 417.723 408.222 426.099
Pd 416.882 409.926 424.148
Pd 418.514 412.112 423.358
Pd 419.32 410.412 425.316
Pd 417.246 412.212 425.783
Pd 416.546 413.697 423.741
Pd 418.123 416.038 423.107
Pd 418.655 414.395 424.995
Pd 416.82 416.047 425.696
Pd 416.053 417.641 423.823
Pd 417.396 419.794 422.898
Pd 418.394 418.013 424.721
Pd 416.304 419.729 425.771
Pd 415.409 421.437 423.413
Pd 417.257 423.607 422.615
Pd 417.842 422.086 424.657
Pd 415.738 423.515 425.138
Pd 415.106 425.14 423.212
Pd 416.768 427.25 422.545
Pd 417.548 425.621 424.629
Pd 415.395 427.091 424.717
Pd 414.709 429.066 423.002
Pd 423.336 405.21 422.492
Pd 421.836 405.073 425.17
Pd 421.145 406.755 423.092
Pd 422.834 408.689 422.414
Pd 423.491 407.007 424.253
Pd 421.416 408.76 425.007
Pd 420.723 410.526 423.152
Pd 422.329 412.661 422.367
Pd 423.031 410.907 424.217
Pd 420.847 412.594 424.734
Pd 420.251 414.327 422.775
Pd 421.951 416.434 421.918
Pd 422.749 414.663 424.065
Pd 420.517 416.353 424.295
Pd 419.663 417.984 422.235
Pd 421.441 420.077 421.669
Pd 422.073 418.512 423.738
Pd 419.868 420.101 424.11
Pd 419.258 421.883 422.305
Pd 420.838 423.811 421.463
Pd 421.633 422.331 423.598
Pd 419.552 423.957 424.031
Pd 418.923 425.573 421.923
Pd 425.763 405.543 423.624
Pd 424.948 407.15 421.848
Pd 426.56 409.562 421.157
Pd 427.117 407.655 423.136
Pd 425.01 409.207 423.693
Pd 424.375 411.009 421.713
Pd 426.041 412.99 420.989
Pd 426.826 411.371 423.058
Pd 424.677 412.879 423.484
Pd 423.929 414.617 421.561
Pd 425.464 416.835 421.007
Pd 426.315 414.831 422.887
Pd 424.359 416.895 423.351
Pd 423.455 418.433 421.434
Pd 425.054 420.488 420.79
Pd 425.885 418.922 422.729
Pd 423.653 420.704 422.974
Pd 422.945 422.365 421.017
Pd 428.861 409.776 422.467
Pd 428.204 411.435 420.541
Pd 429.547 413.645 420.158
Pd 430.473 411.672 422.062
Pd 428.32 413.369 422.479
Pd 427.439 415.106 420.342
Pd 429.12 417.165 419.72
Pd 429.886 415.721 421.911
Pd 427.938 417.222 422.262
Pd 427.097 418.643 420.118
Pd 403.725 421.936 431.126
Pd 403.082 425.578 431.142
Pd 403.941 423.709 432.987
Pd 403.32 427.788 432.487
Pd 407.702 418.614 430.054
Pd 405.516 420.179 430.606
Pd 406.989 422.244 430.091
Pd 407.984 420.693 431.887
Pd 406.016 422.328 432.518
Pd 405.114 423.997 430.392
Pd 406.547 426.289 429.667
Pd 407.604 424.384 431.819
Pd 405.497 425.976 432.051
Pd 404.505 427.769 430.265
Pd 406.115 429.956 429.492
Pd 406.996 428.224 431.262
Pd 404.978 429.937 431.733
Pd 411.906 415.155 429.295
Pd 409.807 417.047 429.784
Pd 411.24 419.063 429.14
Pd 412.16 417.337 431.069
Pd 409.972 419.072 431.536
Pd 409.218 420.88 429.622
Pd 410.956 423.127 428.922
Pd 411.641 421.119 430.84
Pd 409.538 422.946 431.196
Pd 408.624 424.548 429.21
Pd 410.171 426.577 428.514
Pd 411.175 425.232 430.642
Pd 408.996 426.741 430.901
Pd 407.962 428.354 428.771
Pd 409.436 430.591 428.159
Pd 410.37 428.894 430.188
Pd 408.328 430.471 430.628
Pd 416.119 411.926 428.083
Pd 414.09 413.671 428.623
Pd 415.665 415.871 428.039
Pd 416.225 414.035 429.97
Pd 414.364 415.613 430.506
Pd 413.309 417.318 428.776
Pd 415.023 419.636 427.94
Pd 415.693 417.722 429.946
Pd 413.686 419.465 430.321
Pd 412.953 421.439 428.405
Pd 414.367 423.845 427.579
Pd 415.341 421.974 429.544
Pd 413.216 423.499 430.064
Pd 412.342 425.327 428.185
Pd 413.883 427.176 427.242
Pd 414.757 425.709 429.231
Pd 412.681 427.418 429.753
Pd 411.609 428.885 427.642
Pd 420.084 408.424 427.396
Pd 418.277 410.448 427.841
Pd 419.753 412.462 427.107
Pd 420.592 410.663 429.012
Pd 418.369 412.529 429.532
Pd 417.469 414.139 427.422
Pd 419.263 416.336 426.798
Pd 419.912 414.592 428.596
Pd 417.799 416.235 429.218
Pd 417.253 418.146 427.286
Pd 418.97 420.127 426.479
Pd 419.679 418.483 428.516
Pd 417.651 420.117 429.087
Pd 416.791 421.888 427.139
Pd 418.293 423.829 426.534
Pd 419.33 422.09 428.455
Pd 416.831 424.031 428.841
Pd 416.229 425.674 426.789
Pd 424.441 405.497 425.991
Pd 422.261 407.071 426.811
Pd 423.76 409.049 426.095
Pd 424.823 407.367 428.002
Pd 422.597 408.924 428.472
Pd 421.603 410.786 426.557
Pd 423.413 412.899 425.871
Pd 424.003 411.294 427.725
Pd 422.011 412.885 428.389
Pd 421.192 414.5 426.234
Pd 422.877 416.66 425.647
Pd 423.604 414.913 427.526
Pd 421.59 416.643 428.099
Pd 420.832 418.57 426.128
Pd 422.414 420.514 425.473
Pd 423.302 418.966 427.537
Pd 421.18 420.349 427.894
Pd 420.508 422.232 425.884
Pd 427.802 405.722 425.322
Pd 426.909 405.903 427.653
Pd 425.93 407.558 425.731
Pd 427.642 409.539 424.949
Pd 428.213 408.02 426.965
Pd 426.162 409.592 427.513
Pd 425.437 411.091 425.366
Pd 427.113 413.419 424.934
Pd 427.825 411.5 426.923
Pd 425.768 413.297 427.231
Pd 425.002 415.016 425.228
Pd 426.745 416.847 424.683
Pd 427.216 415.301 426.727
Pd 425.317 417.071 426.996
Pd 424.536 418.796 425.094
Pd 429.833 406.197 426.761
Pd 429.578 407.757 424.476
Pd 430.996 409.841 423.926
Pd 431.858 408.091 426.049
Pd 429.853 410.019 426.122
Pd 429.157 411.772 424.303
Pd 430.675 413.821 423.646
Pd 431.398 412.044 425.465
Pd 429.423 413.817 426.245
Pd 428.981 415.48 424.28
Pd 404.254 426.047 434.406
Pd 403.797 428.23 435.395
Pd 406.052 429.313 435.96
Pd 408.388 422.849 433.721
Pd 406.086 424.58 434.09
Pd 407.836 426.711 433.347
Pd 408.523 425.173 435.279
Pd 406.582 426.771 435.725
Pd 405.611 428.21 433.619
Pd 407.313 430.123 433.226
Pd 408.311 428.542 435.197
Pd 404.386 430.403 434.198
Pd 412.687 419.764 432.951
Pd 410.262 421.168 433.108
Pd 411.887 423.292 432.278
Pd 412.82 421.924 434.171
Pd 410.681 423.574 434.6
Pd 409.852 425.045 432.818
Pd 411.463 427.396 432.055
Pd 412.257 425.575 433.827
Pd 410.17 426.981 434.483
Pd 409.434 428.873 432.66
Pd 416.676 416.039 431.618
Pd 414.339 417.667 432.259
Pd 416.044 420.103 431.36
Pd 416.829 418.329 433.208
Pd 415.147 420.32 433.824
Pd 414.175 421.811 431.831
Pd 415.697 424.2 431.244
Pd 416.298 422.292 432.869
Pd 414.3 423.893 433.365
Pd 413.515 425.547 431.567
Pd 420.752 412.67 430.691
Pd 418.744 414.577 431.132
Pd 420.268 416.623 430.435
Pd 421.074 414.888 432.458
Pd 418.929 416.605 432.986
Pd 418.214 418.37 430.908
Pd 419.955 420.364 430.458
Pd 420.373 418.489 432.327
Pd 418.359 420.183 432.674
Pd 417.8 422.014 430.828
Pd 424.649 409.357 429.79
Pd 422.868 411.164 430.212
Pd 424.305 413.309 429.611
Pd 424.931 411.548 431.735
Pd 423.019 413.314 432.039
Pd 422.281 414.971 430.064
Pd 423.97 417.092 429.428
Pd 424.509 415.152 431.36
Pd 422.482 416.938 431.764
Pd 421.877 418.848 429.931
Pd 429.205 406.591 429.292
Pd 426.951 407.748 429.674
Pd 428.423 409.741 429.13
Pd 429.443 408.615 431.229
Pd 426.979 410.129 431.165
Pd 426.433 411.554 429.201
Pd 428.269 413.552 428.479
Pd 428.962 411.669 430.676
Pd 426.79 413.432 430.875
Pd 425.971 415.383 428.988
Pd 431.922 406.057 428.031
Pd 431.587 407.487 430.336
Pd 430.569 408.396 428.12
Pd 432.093 410.54 427.383
Pd 433.207 408.497 428.369
Pd 430.949 410.101 430.161
Pd 430.041 411.852 428.192
